**************************************************
* OpenRAM generated memory.
* Words: 32
* Data bits: 128
* Banks: 1
* Column mux: 1:1
* Trimmed: False
* LVS: False
**************************************************
* File: DFFPOSX1.pex.netlist
* Created: Wed Jan  2 18:36:24 2008
* Program "Calibre xRC"
* Version "v2007.2_34.24"
*
.subckt dff D Q clk vdd gnd
*
MM21 Q a_66_6# gnd gnd NMOS_VTG L=5e-08 W=5e-07
MM19 a_76_6# a_2_6# a_66_6# gnd NMOS_VTG L=5e-08 W=2.5e-07
MM20 gnd Q a_76_6# gnd NMOS_VTG L=5e-08 W=2.5e-07
MM18 a_66_6# clk a_61_6# gnd NMOS_VTG L=5e-08 W=2.5e-07
MM17 a_61_6# a_34_4# gnd gnd NMOS_VTG L=5e-08 W=2.5e-07
MM10 gnd clk a_2_6# gnd NMOS_VTG L=5e-08 W=5e-07
MM16 a_34_4# a_22_6# gnd gnd NMOS_VTG L=5e-08 W=2.5e-07
MM15 gnd a_34_4# a_31_6# gnd NMOS_VTG L=5e-08 W=2.5e-07
MM14 a_31_6# clk a_22_6# gnd NMOS_VTG L=5e-08 W=2.5e-07
MM13 a_22_6# a_2_6# a_17_6# gnd NMOS_VTG L=5e-08 W=2.5e-07
MM12 a_17_6# D gnd gnd NMOS_VTG L=5e-08 W=2.5e-07
MM11 Q a_66_6# vdd vdd PMOS_VTG L=5e-08 W=1e-06
MM9 vdd Q a_76_84# vdd PMOS_VTG L=5e-08 W=2.5e-07
MM8 a_76_84# clk a_66_6# vdd PMOS_VTG L=5e-08 W=2.5e-07
MM7 a_66_6# a_2_6# a_61_74# vdd PMOS_VTG L=5e-08 W=5e-07
MM6 a_61_74# a_34_4# vdd vdd PMOS_VTG L=5e-08 W=5e-07
MM0 vdd clk a_2_6# vdd PMOS_VTG L=5e-08 W=1e-06
MM5 a_34_4# a_22_6# vdd vdd PMOS_VTG L=5e-08 W=5e-07
MM4 vdd a_34_4# a_31_74# vdd PMOS_VTG L=5e-08 W=5e-07
MM3 a_31_74# a_2_6# a_22_6# vdd PMOS_VTG L=5e-08 W=5e-07
MM2 a_22_6# clk a_17_74# vdd PMOS_VTG L=5e-08 W=5e-07
MM1 a_17_74# D vdd vdd PMOS_VTG L=5e-08 W=5e-07
* c_9 a_66_6# 0 0.271997f
* c_20 clk 0 0.350944f
* c_27 Q 0 0.202617f
* c_32 a_76_84# 0 0.0210573f
* c_38 a_76_6# 0 0.0204911f
* c_45 a_34_4# 0 0.172306f
* c_55 a_2_6# 0 0.283119f
* c_59 a_22_6# 0 0.157312f
* c_64 D 0 0.0816386f
* c_73 gnd 0 0.254131f
* c_81 vdd 0 0.23624f
*
*.include "dff.pex.netlist.dff.pxi"
*
.ends
*
*

.SUBCKT mp3_data_array_2_row_addr_dff
+ din_0 din_1 din_2 din_3 din_4 dout_0 dout_1 dout_2 dout_3 dout_4 clk
+ vdd gnd
* INPUT : din_0 
* INPUT : din_1 
* INPUT : din_2 
* INPUT : din_3 
* INPUT : din_4 
* OUTPUT: dout_0 
* OUTPUT: dout_1 
* OUTPUT: dout_2 
* OUTPUT: dout_3 
* OUTPUT: dout_4 
* INPUT : clk 
* POWER : vdd 
* GROUND: gnd 
* rows: 5 cols: 1
Xdff_r0_c0
+ din_0 dout_0 clk vdd gnd
+ dff
Xdff_r1_c0
+ din_1 dout_1 clk vdd gnd
+ dff
Xdff_r2_c0
+ din_2 dout_2 clk vdd gnd
+ dff
Xdff_r3_c0
+ din_3 dout_3 clk vdd gnd
+ dff
Xdff_r4_c0
+ din_4 dout_4 clk vdd gnd
+ dff
.ENDS mp3_data_array_2_row_addr_dff

.SUBCKT mp3_data_array_2_data_dff
+ din_0 din_1 din_2 din_3 din_4 din_5 din_6 din_7 din_8 din_9 din_10
+ din_11 din_12 din_13 din_14 din_15 din_16 din_17 din_18 din_19 din_20
+ din_21 din_22 din_23 din_24 din_25 din_26 din_27 din_28 din_29 din_30
+ din_31 din_32 din_33 din_34 din_35 din_36 din_37 din_38 din_39 din_40
+ din_41 din_42 din_43 din_44 din_45 din_46 din_47 din_48 din_49 din_50
+ din_51 din_52 din_53 din_54 din_55 din_56 din_57 din_58 din_59 din_60
+ din_61 din_62 din_63 din_64 din_65 din_66 din_67 din_68 din_69 din_70
+ din_71 din_72 din_73 din_74 din_75 din_76 din_77 din_78 din_79 din_80
+ din_81 din_82 din_83 din_84 din_85 din_86 din_87 din_88 din_89 din_90
+ din_91 din_92 din_93 din_94 din_95 din_96 din_97 din_98 din_99 din_100
+ din_101 din_102 din_103 din_104 din_105 din_106 din_107 din_108
+ din_109 din_110 din_111 din_112 din_113 din_114 din_115 din_116
+ din_117 din_118 din_119 din_120 din_121 din_122 din_123 din_124
+ din_125 din_126 din_127 dout_0 dout_1 dout_2 dout_3 dout_4 dout_5
+ dout_6 dout_7 dout_8 dout_9 dout_10 dout_11 dout_12 dout_13 dout_14
+ dout_15 dout_16 dout_17 dout_18 dout_19 dout_20 dout_21 dout_22
+ dout_23 dout_24 dout_25 dout_26 dout_27 dout_28 dout_29 dout_30
+ dout_31 dout_32 dout_33 dout_34 dout_35 dout_36 dout_37 dout_38
+ dout_39 dout_40 dout_41 dout_42 dout_43 dout_44 dout_45 dout_46
+ dout_47 dout_48 dout_49 dout_50 dout_51 dout_52 dout_53 dout_54
+ dout_55 dout_56 dout_57 dout_58 dout_59 dout_60 dout_61 dout_62
+ dout_63 dout_64 dout_65 dout_66 dout_67 dout_68 dout_69 dout_70
+ dout_71 dout_72 dout_73 dout_74 dout_75 dout_76 dout_77 dout_78
+ dout_79 dout_80 dout_81 dout_82 dout_83 dout_84 dout_85 dout_86
+ dout_87 dout_88 dout_89 dout_90 dout_91 dout_92 dout_93 dout_94
+ dout_95 dout_96 dout_97 dout_98 dout_99 dout_100 dout_101 dout_102
+ dout_103 dout_104 dout_105 dout_106 dout_107 dout_108 dout_109
+ dout_110 dout_111 dout_112 dout_113 dout_114 dout_115 dout_116
+ dout_117 dout_118 dout_119 dout_120 dout_121 dout_122 dout_123
+ dout_124 dout_125 dout_126 dout_127 clk vdd gnd
* INPUT : din_0 
* INPUT : din_1 
* INPUT : din_2 
* INPUT : din_3 
* INPUT : din_4 
* INPUT : din_5 
* INPUT : din_6 
* INPUT : din_7 
* INPUT : din_8 
* INPUT : din_9 
* INPUT : din_10 
* INPUT : din_11 
* INPUT : din_12 
* INPUT : din_13 
* INPUT : din_14 
* INPUT : din_15 
* INPUT : din_16 
* INPUT : din_17 
* INPUT : din_18 
* INPUT : din_19 
* INPUT : din_20 
* INPUT : din_21 
* INPUT : din_22 
* INPUT : din_23 
* INPUT : din_24 
* INPUT : din_25 
* INPUT : din_26 
* INPUT : din_27 
* INPUT : din_28 
* INPUT : din_29 
* INPUT : din_30 
* INPUT : din_31 
* INPUT : din_32 
* INPUT : din_33 
* INPUT : din_34 
* INPUT : din_35 
* INPUT : din_36 
* INPUT : din_37 
* INPUT : din_38 
* INPUT : din_39 
* INPUT : din_40 
* INPUT : din_41 
* INPUT : din_42 
* INPUT : din_43 
* INPUT : din_44 
* INPUT : din_45 
* INPUT : din_46 
* INPUT : din_47 
* INPUT : din_48 
* INPUT : din_49 
* INPUT : din_50 
* INPUT : din_51 
* INPUT : din_52 
* INPUT : din_53 
* INPUT : din_54 
* INPUT : din_55 
* INPUT : din_56 
* INPUT : din_57 
* INPUT : din_58 
* INPUT : din_59 
* INPUT : din_60 
* INPUT : din_61 
* INPUT : din_62 
* INPUT : din_63 
* INPUT : din_64 
* INPUT : din_65 
* INPUT : din_66 
* INPUT : din_67 
* INPUT : din_68 
* INPUT : din_69 
* INPUT : din_70 
* INPUT : din_71 
* INPUT : din_72 
* INPUT : din_73 
* INPUT : din_74 
* INPUT : din_75 
* INPUT : din_76 
* INPUT : din_77 
* INPUT : din_78 
* INPUT : din_79 
* INPUT : din_80 
* INPUT : din_81 
* INPUT : din_82 
* INPUT : din_83 
* INPUT : din_84 
* INPUT : din_85 
* INPUT : din_86 
* INPUT : din_87 
* INPUT : din_88 
* INPUT : din_89 
* INPUT : din_90 
* INPUT : din_91 
* INPUT : din_92 
* INPUT : din_93 
* INPUT : din_94 
* INPUT : din_95 
* INPUT : din_96 
* INPUT : din_97 
* INPUT : din_98 
* INPUT : din_99 
* INPUT : din_100 
* INPUT : din_101 
* INPUT : din_102 
* INPUT : din_103 
* INPUT : din_104 
* INPUT : din_105 
* INPUT : din_106 
* INPUT : din_107 
* INPUT : din_108 
* INPUT : din_109 
* INPUT : din_110 
* INPUT : din_111 
* INPUT : din_112 
* INPUT : din_113 
* INPUT : din_114 
* INPUT : din_115 
* INPUT : din_116 
* INPUT : din_117 
* INPUT : din_118 
* INPUT : din_119 
* INPUT : din_120 
* INPUT : din_121 
* INPUT : din_122 
* INPUT : din_123 
* INPUT : din_124 
* INPUT : din_125 
* INPUT : din_126 
* INPUT : din_127 
* OUTPUT: dout_0 
* OUTPUT: dout_1 
* OUTPUT: dout_2 
* OUTPUT: dout_3 
* OUTPUT: dout_4 
* OUTPUT: dout_5 
* OUTPUT: dout_6 
* OUTPUT: dout_7 
* OUTPUT: dout_8 
* OUTPUT: dout_9 
* OUTPUT: dout_10 
* OUTPUT: dout_11 
* OUTPUT: dout_12 
* OUTPUT: dout_13 
* OUTPUT: dout_14 
* OUTPUT: dout_15 
* OUTPUT: dout_16 
* OUTPUT: dout_17 
* OUTPUT: dout_18 
* OUTPUT: dout_19 
* OUTPUT: dout_20 
* OUTPUT: dout_21 
* OUTPUT: dout_22 
* OUTPUT: dout_23 
* OUTPUT: dout_24 
* OUTPUT: dout_25 
* OUTPUT: dout_26 
* OUTPUT: dout_27 
* OUTPUT: dout_28 
* OUTPUT: dout_29 
* OUTPUT: dout_30 
* OUTPUT: dout_31 
* OUTPUT: dout_32 
* OUTPUT: dout_33 
* OUTPUT: dout_34 
* OUTPUT: dout_35 
* OUTPUT: dout_36 
* OUTPUT: dout_37 
* OUTPUT: dout_38 
* OUTPUT: dout_39 
* OUTPUT: dout_40 
* OUTPUT: dout_41 
* OUTPUT: dout_42 
* OUTPUT: dout_43 
* OUTPUT: dout_44 
* OUTPUT: dout_45 
* OUTPUT: dout_46 
* OUTPUT: dout_47 
* OUTPUT: dout_48 
* OUTPUT: dout_49 
* OUTPUT: dout_50 
* OUTPUT: dout_51 
* OUTPUT: dout_52 
* OUTPUT: dout_53 
* OUTPUT: dout_54 
* OUTPUT: dout_55 
* OUTPUT: dout_56 
* OUTPUT: dout_57 
* OUTPUT: dout_58 
* OUTPUT: dout_59 
* OUTPUT: dout_60 
* OUTPUT: dout_61 
* OUTPUT: dout_62 
* OUTPUT: dout_63 
* OUTPUT: dout_64 
* OUTPUT: dout_65 
* OUTPUT: dout_66 
* OUTPUT: dout_67 
* OUTPUT: dout_68 
* OUTPUT: dout_69 
* OUTPUT: dout_70 
* OUTPUT: dout_71 
* OUTPUT: dout_72 
* OUTPUT: dout_73 
* OUTPUT: dout_74 
* OUTPUT: dout_75 
* OUTPUT: dout_76 
* OUTPUT: dout_77 
* OUTPUT: dout_78 
* OUTPUT: dout_79 
* OUTPUT: dout_80 
* OUTPUT: dout_81 
* OUTPUT: dout_82 
* OUTPUT: dout_83 
* OUTPUT: dout_84 
* OUTPUT: dout_85 
* OUTPUT: dout_86 
* OUTPUT: dout_87 
* OUTPUT: dout_88 
* OUTPUT: dout_89 
* OUTPUT: dout_90 
* OUTPUT: dout_91 
* OUTPUT: dout_92 
* OUTPUT: dout_93 
* OUTPUT: dout_94 
* OUTPUT: dout_95 
* OUTPUT: dout_96 
* OUTPUT: dout_97 
* OUTPUT: dout_98 
* OUTPUT: dout_99 
* OUTPUT: dout_100 
* OUTPUT: dout_101 
* OUTPUT: dout_102 
* OUTPUT: dout_103 
* OUTPUT: dout_104 
* OUTPUT: dout_105 
* OUTPUT: dout_106 
* OUTPUT: dout_107 
* OUTPUT: dout_108 
* OUTPUT: dout_109 
* OUTPUT: dout_110 
* OUTPUT: dout_111 
* OUTPUT: dout_112 
* OUTPUT: dout_113 
* OUTPUT: dout_114 
* OUTPUT: dout_115 
* OUTPUT: dout_116 
* OUTPUT: dout_117 
* OUTPUT: dout_118 
* OUTPUT: dout_119 
* OUTPUT: dout_120 
* OUTPUT: dout_121 
* OUTPUT: dout_122 
* OUTPUT: dout_123 
* OUTPUT: dout_124 
* OUTPUT: dout_125 
* OUTPUT: dout_126 
* OUTPUT: dout_127 
* INPUT : clk 
* POWER : vdd 
* GROUND: gnd 
* rows: 1 cols: 128
Xdff_r0_c0
+ din_0 dout_0 clk vdd gnd
+ dff
Xdff_r0_c1
+ din_1 dout_1 clk vdd gnd
+ dff
Xdff_r0_c2
+ din_2 dout_2 clk vdd gnd
+ dff
Xdff_r0_c3
+ din_3 dout_3 clk vdd gnd
+ dff
Xdff_r0_c4
+ din_4 dout_4 clk vdd gnd
+ dff
Xdff_r0_c5
+ din_5 dout_5 clk vdd gnd
+ dff
Xdff_r0_c6
+ din_6 dout_6 clk vdd gnd
+ dff
Xdff_r0_c7
+ din_7 dout_7 clk vdd gnd
+ dff
Xdff_r0_c8
+ din_8 dout_8 clk vdd gnd
+ dff
Xdff_r0_c9
+ din_9 dout_9 clk vdd gnd
+ dff
Xdff_r0_c10
+ din_10 dout_10 clk vdd gnd
+ dff
Xdff_r0_c11
+ din_11 dout_11 clk vdd gnd
+ dff
Xdff_r0_c12
+ din_12 dout_12 clk vdd gnd
+ dff
Xdff_r0_c13
+ din_13 dout_13 clk vdd gnd
+ dff
Xdff_r0_c14
+ din_14 dout_14 clk vdd gnd
+ dff
Xdff_r0_c15
+ din_15 dout_15 clk vdd gnd
+ dff
Xdff_r0_c16
+ din_16 dout_16 clk vdd gnd
+ dff
Xdff_r0_c17
+ din_17 dout_17 clk vdd gnd
+ dff
Xdff_r0_c18
+ din_18 dout_18 clk vdd gnd
+ dff
Xdff_r0_c19
+ din_19 dout_19 clk vdd gnd
+ dff
Xdff_r0_c20
+ din_20 dout_20 clk vdd gnd
+ dff
Xdff_r0_c21
+ din_21 dout_21 clk vdd gnd
+ dff
Xdff_r0_c22
+ din_22 dout_22 clk vdd gnd
+ dff
Xdff_r0_c23
+ din_23 dout_23 clk vdd gnd
+ dff
Xdff_r0_c24
+ din_24 dout_24 clk vdd gnd
+ dff
Xdff_r0_c25
+ din_25 dout_25 clk vdd gnd
+ dff
Xdff_r0_c26
+ din_26 dout_26 clk vdd gnd
+ dff
Xdff_r0_c27
+ din_27 dout_27 clk vdd gnd
+ dff
Xdff_r0_c28
+ din_28 dout_28 clk vdd gnd
+ dff
Xdff_r0_c29
+ din_29 dout_29 clk vdd gnd
+ dff
Xdff_r0_c30
+ din_30 dout_30 clk vdd gnd
+ dff
Xdff_r0_c31
+ din_31 dout_31 clk vdd gnd
+ dff
Xdff_r0_c32
+ din_32 dout_32 clk vdd gnd
+ dff
Xdff_r0_c33
+ din_33 dout_33 clk vdd gnd
+ dff
Xdff_r0_c34
+ din_34 dout_34 clk vdd gnd
+ dff
Xdff_r0_c35
+ din_35 dout_35 clk vdd gnd
+ dff
Xdff_r0_c36
+ din_36 dout_36 clk vdd gnd
+ dff
Xdff_r0_c37
+ din_37 dout_37 clk vdd gnd
+ dff
Xdff_r0_c38
+ din_38 dout_38 clk vdd gnd
+ dff
Xdff_r0_c39
+ din_39 dout_39 clk vdd gnd
+ dff
Xdff_r0_c40
+ din_40 dout_40 clk vdd gnd
+ dff
Xdff_r0_c41
+ din_41 dout_41 clk vdd gnd
+ dff
Xdff_r0_c42
+ din_42 dout_42 clk vdd gnd
+ dff
Xdff_r0_c43
+ din_43 dout_43 clk vdd gnd
+ dff
Xdff_r0_c44
+ din_44 dout_44 clk vdd gnd
+ dff
Xdff_r0_c45
+ din_45 dout_45 clk vdd gnd
+ dff
Xdff_r0_c46
+ din_46 dout_46 clk vdd gnd
+ dff
Xdff_r0_c47
+ din_47 dout_47 clk vdd gnd
+ dff
Xdff_r0_c48
+ din_48 dout_48 clk vdd gnd
+ dff
Xdff_r0_c49
+ din_49 dout_49 clk vdd gnd
+ dff
Xdff_r0_c50
+ din_50 dout_50 clk vdd gnd
+ dff
Xdff_r0_c51
+ din_51 dout_51 clk vdd gnd
+ dff
Xdff_r0_c52
+ din_52 dout_52 clk vdd gnd
+ dff
Xdff_r0_c53
+ din_53 dout_53 clk vdd gnd
+ dff
Xdff_r0_c54
+ din_54 dout_54 clk vdd gnd
+ dff
Xdff_r0_c55
+ din_55 dout_55 clk vdd gnd
+ dff
Xdff_r0_c56
+ din_56 dout_56 clk vdd gnd
+ dff
Xdff_r0_c57
+ din_57 dout_57 clk vdd gnd
+ dff
Xdff_r0_c58
+ din_58 dout_58 clk vdd gnd
+ dff
Xdff_r0_c59
+ din_59 dout_59 clk vdd gnd
+ dff
Xdff_r0_c60
+ din_60 dout_60 clk vdd gnd
+ dff
Xdff_r0_c61
+ din_61 dout_61 clk vdd gnd
+ dff
Xdff_r0_c62
+ din_62 dout_62 clk vdd gnd
+ dff
Xdff_r0_c63
+ din_63 dout_63 clk vdd gnd
+ dff
Xdff_r0_c64
+ din_64 dout_64 clk vdd gnd
+ dff
Xdff_r0_c65
+ din_65 dout_65 clk vdd gnd
+ dff
Xdff_r0_c66
+ din_66 dout_66 clk vdd gnd
+ dff
Xdff_r0_c67
+ din_67 dout_67 clk vdd gnd
+ dff
Xdff_r0_c68
+ din_68 dout_68 clk vdd gnd
+ dff
Xdff_r0_c69
+ din_69 dout_69 clk vdd gnd
+ dff
Xdff_r0_c70
+ din_70 dout_70 clk vdd gnd
+ dff
Xdff_r0_c71
+ din_71 dout_71 clk vdd gnd
+ dff
Xdff_r0_c72
+ din_72 dout_72 clk vdd gnd
+ dff
Xdff_r0_c73
+ din_73 dout_73 clk vdd gnd
+ dff
Xdff_r0_c74
+ din_74 dout_74 clk vdd gnd
+ dff
Xdff_r0_c75
+ din_75 dout_75 clk vdd gnd
+ dff
Xdff_r0_c76
+ din_76 dout_76 clk vdd gnd
+ dff
Xdff_r0_c77
+ din_77 dout_77 clk vdd gnd
+ dff
Xdff_r0_c78
+ din_78 dout_78 clk vdd gnd
+ dff
Xdff_r0_c79
+ din_79 dout_79 clk vdd gnd
+ dff
Xdff_r0_c80
+ din_80 dout_80 clk vdd gnd
+ dff
Xdff_r0_c81
+ din_81 dout_81 clk vdd gnd
+ dff
Xdff_r0_c82
+ din_82 dout_82 clk vdd gnd
+ dff
Xdff_r0_c83
+ din_83 dout_83 clk vdd gnd
+ dff
Xdff_r0_c84
+ din_84 dout_84 clk vdd gnd
+ dff
Xdff_r0_c85
+ din_85 dout_85 clk vdd gnd
+ dff
Xdff_r0_c86
+ din_86 dout_86 clk vdd gnd
+ dff
Xdff_r0_c87
+ din_87 dout_87 clk vdd gnd
+ dff
Xdff_r0_c88
+ din_88 dout_88 clk vdd gnd
+ dff
Xdff_r0_c89
+ din_89 dout_89 clk vdd gnd
+ dff
Xdff_r0_c90
+ din_90 dout_90 clk vdd gnd
+ dff
Xdff_r0_c91
+ din_91 dout_91 clk vdd gnd
+ dff
Xdff_r0_c92
+ din_92 dout_92 clk vdd gnd
+ dff
Xdff_r0_c93
+ din_93 dout_93 clk vdd gnd
+ dff
Xdff_r0_c94
+ din_94 dout_94 clk vdd gnd
+ dff
Xdff_r0_c95
+ din_95 dout_95 clk vdd gnd
+ dff
Xdff_r0_c96
+ din_96 dout_96 clk vdd gnd
+ dff
Xdff_r0_c97
+ din_97 dout_97 clk vdd gnd
+ dff
Xdff_r0_c98
+ din_98 dout_98 clk vdd gnd
+ dff
Xdff_r0_c99
+ din_99 dout_99 clk vdd gnd
+ dff
Xdff_r0_c100
+ din_100 dout_100 clk vdd gnd
+ dff
Xdff_r0_c101
+ din_101 dout_101 clk vdd gnd
+ dff
Xdff_r0_c102
+ din_102 dout_102 clk vdd gnd
+ dff
Xdff_r0_c103
+ din_103 dout_103 clk vdd gnd
+ dff
Xdff_r0_c104
+ din_104 dout_104 clk vdd gnd
+ dff
Xdff_r0_c105
+ din_105 dout_105 clk vdd gnd
+ dff
Xdff_r0_c106
+ din_106 dout_106 clk vdd gnd
+ dff
Xdff_r0_c107
+ din_107 dout_107 clk vdd gnd
+ dff
Xdff_r0_c108
+ din_108 dout_108 clk vdd gnd
+ dff
Xdff_r0_c109
+ din_109 dout_109 clk vdd gnd
+ dff
Xdff_r0_c110
+ din_110 dout_110 clk vdd gnd
+ dff
Xdff_r0_c111
+ din_111 dout_111 clk vdd gnd
+ dff
Xdff_r0_c112
+ din_112 dout_112 clk vdd gnd
+ dff
Xdff_r0_c113
+ din_113 dout_113 clk vdd gnd
+ dff
Xdff_r0_c114
+ din_114 dout_114 clk vdd gnd
+ dff
Xdff_r0_c115
+ din_115 dout_115 clk vdd gnd
+ dff
Xdff_r0_c116
+ din_116 dout_116 clk vdd gnd
+ dff
Xdff_r0_c117
+ din_117 dout_117 clk vdd gnd
+ dff
Xdff_r0_c118
+ din_118 dout_118 clk vdd gnd
+ dff
Xdff_r0_c119
+ din_119 dout_119 clk vdd gnd
+ dff
Xdff_r0_c120
+ din_120 dout_120 clk vdd gnd
+ dff
Xdff_r0_c121
+ din_121 dout_121 clk vdd gnd
+ dff
Xdff_r0_c122
+ din_122 dout_122 clk vdd gnd
+ dff
Xdff_r0_c123
+ din_123 dout_123 clk vdd gnd
+ dff
Xdff_r0_c124
+ din_124 dout_124 clk vdd gnd
+ dff
Xdff_r0_c125
+ din_125 dout_125 clk vdd gnd
+ dff
Xdff_r0_c126
+ din_126 dout_126 clk vdd gnd
+ dff
Xdff_r0_c127
+ din_127 dout_127 clk vdd gnd
+ dff
.ENDS mp3_data_array_2_data_dff

* spice ptx M{0} {1} nmos_vtg m=3 w=0.3u l=0.05u pd=0.70u ps=0.70u as=0.04p ad=0.04p

* spice ptx M{0} {1} pmos_vtg m=3 w=0.9u l=0.05u pd=1.90u ps=1.90u as=0.11p ad=0.11p

.SUBCKT mp3_data_array_2_pinv_13
+ A Z vdd gnd
* INPUT : A 
* OUTPUT: Z 
* POWER : vdd 
* GROUND: gnd 
* size: 10
Mpinv_pmos Z A vdd vdd pmos_vtg m=3 w=0.9u l=0.05u pd=1.90u ps=1.90u as=0.11p ad=0.11p
Mpinv_nmos Z A gnd gnd nmos_vtg m=3 w=0.3u l=0.05u pd=0.70u ps=0.70u as=0.04p ad=0.04p
.ENDS mp3_data_array_2_pinv_13

* spice ptx M{0} {1} nmos_vtg m=1 w=0.27u l=0.05u pd=0.64u ps=0.64u as=0.03p ad=0.03p

* spice ptx M{0} {1} pmos_vtg m=1 w=0.81u l=0.05u pd=1.72u ps=1.72u as=0.10p ad=0.10p

.SUBCKT mp3_data_array_2_pinv_8
+ A Z vdd gnd
* INPUT : A 
* OUTPUT: Z 
* POWER : vdd 
* GROUND: gnd 
* size: 3
Mpinv_pmos Z A vdd vdd pmos_vtg m=1 w=0.81u l=0.05u pd=1.72u ps=1.72u as=0.10p ad=0.10p
Mpinv_nmos Z A gnd gnd nmos_vtg m=1 w=0.27u l=0.05u pd=0.64u ps=0.64u as=0.03p ad=0.03p
.ENDS mp3_data_array_2_pinv_8

.SUBCKT mp3_data_array_2_pdriver_2
+ A Z vdd gnd
* INPUT : A 
* OUTPUT: Z 
* POWER : vdd 
* GROUND: gnd 
* sizes: [3, 10]
Xbuf_inv1
+ A Zb1_int vdd gnd
+ mp3_data_array_2_pinv_8
Xbuf_inv2
+ Zb1_int Z vdd gnd
+ mp3_data_array_2_pinv_13
.ENDS mp3_data_array_2_pdriver_2

* spice ptx M{0} {1} nmos_vtg m=1 w=0.09u l=0.05u pd=0.28u ps=0.28u as=0.01p ad=0.01p

* spice ptx M{0} {1} pmos_vtg m=1 w=0.27u l=0.05u pd=0.64u ps=0.64u as=0.03p ad=0.03p

.SUBCKT mp3_data_array_2_pinv_21
+ A Z vdd gnd
* INPUT : A 
* OUTPUT: Z 
* POWER : vdd 
* GROUND: gnd 
* size: 1
Mpinv_pmos Z A vdd vdd pmos_vtg m=1 w=0.27u l=0.05u pd=0.64u ps=0.64u as=0.03p ad=0.03p
Mpinv_nmos Z A gnd gnd nmos_vtg m=1 w=0.09u l=0.05u pd=0.28u ps=0.28u as=0.01p ad=0.01p
.ENDS mp3_data_array_2_pinv_21

.SUBCKT mp3_data_array_2_delay_chain
+ in out vdd gnd
* INPUT : in 
* OUTPUT: out 
* POWER : vdd 
* GROUND: gnd 
* fanouts: [4, 4, 4, 4, 4, 4, 4, 4, 4]
Xdinv0
+ in dout_1 vdd gnd
+ mp3_data_array_2_pinv_21
Xdload_0_0
+ dout_1 n_0_0 vdd gnd
+ mp3_data_array_2_pinv_21
Xdload_0_1
+ dout_1 n_0_1 vdd gnd
+ mp3_data_array_2_pinv_21
Xdload_0_2
+ dout_1 n_0_2 vdd gnd
+ mp3_data_array_2_pinv_21
Xdload_0_3
+ dout_1 n_0_3 vdd gnd
+ mp3_data_array_2_pinv_21
Xdinv1
+ dout_1 dout_2 vdd gnd
+ mp3_data_array_2_pinv_21
Xdload_1_0
+ dout_2 n_1_0 vdd gnd
+ mp3_data_array_2_pinv_21
Xdload_1_1
+ dout_2 n_1_1 vdd gnd
+ mp3_data_array_2_pinv_21
Xdload_1_2
+ dout_2 n_1_2 vdd gnd
+ mp3_data_array_2_pinv_21
Xdload_1_3
+ dout_2 n_1_3 vdd gnd
+ mp3_data_array_2_pinv_21
Xdinv2
+ dout_2 dout_3 vdd gnd
+ mp3_data_array_2_pinv_21
Xdload_2_0
+ dout_3 n_2_0 vdd gnd
+ mp3_data_array_2_pinv_21
Xdload_2_1
+ dout_3 n_2_1 vdd gnd
+ mp3_data_array_2_pinv_21
Xdload_2_2
+ dout_3 n_2_2 vdd gnd
+ mp3_data_array_2_pinv_21
Xdload_2_3
+ dout_3 n_2_3 vdd gnd
+ mp3_data_array_2_pinv_21
Xdinv3
+ dout_3 dout_4 vdd gnd
+ mp3_data_array_2_pinv_21
Xdload_3_0
+ dout_4 n_3_0 vdd gnd
+ mp3_data_array_2_pinv_21
Xdload_3_1
+ dout_4 n_3_1 vdd gnd
+ mp3_data_array_2_pinv_21
Xdload_3_2
+ dout_4 n_3_2 vdd gnd
+ mp3_data_array_2_pinv_21
Xdload_3_3
+ dout_4 n_3_3 vdd gnd
+ mp3_data_array_2_pinv_21
Xdinv4
+ dout_4 dout_5 vdd gnd
+ mp3_data_array_2_pinv_21
Xdload_4_0
+ dout_5 n_4_0 vdd gnd
+ mp3_data_array_2_pinv_21
Xdload_4_1
+ dout_5 n_4_1 vdd gnd
+ mp3_data_array_2_pinv_21
Xdload_4_2
+ dout_5 n_4_2 vdd gnd
+ mp3_data_array_2_pinv_21
Xdload_4_3
+ dout_5 n_4_3 vdd gnd
+ mp3_data_array_2_pinv_21
Xdinv5
+ dout_5 dout_6 vdd gnd
+ mp3_data_array_2_pinv_21
Xdload_5_0
+ dout_6 n_5_0 vdd gnd
+ mp3_data_array_2_pinv_21
Xdload_5_1
+ dout_6 n_5_1 vdd gnd
+ mp3_data_array_2_pinv_21
Xdload_5_2
+ dout_6 n_5_2 vdd gnd
+ mp3_data_array_2_pinv_21
Xdload_5_3
+ dout_6 n_5_3 vdd gnd
+ mp3_data_array_2_pinv_21
Xdinv6
+ dout_6 dout_7 vdd gnd
+ mp3_data_array_2_pinv_21
Xdload_6_0
+ dout_7 n_6_0 vdd gnd
+ mp3_data_array_2_pinv_21
Xdload_6_1
+ dout_7 n_6_1 vdd gnd
+ mp3_data_array_2_pinv_21
Xdload_6_2
+ dout_7 n_6_2 vdd gnd
+ mp3_data_array_2_pinv_21
Xdload_6_3
+ dout_7 n_6_3 vdd gnd
+ mp3_data_array_2_pinv_21
Xdinv7
+ dout_7 dout_8 vdd gnd
+ mp3_data_array_2_pinv_21
Xdload_7_0
+ dout_8 n_7_0 vdd gnd
+ mp3_data_array_2_pinv_21
Xdload_7_1
+ dout_8 n_7_1 vdd gnd
+ mp3_data_array_2_pinv_21
Xdload_7_2
+ dout_8 n_7_2 vdd gnd
+ mp3_data_array_2_pinv_21
Xdload_7_3
+ dout_8 n_7_3 vdd gnd
+ mp3_data_array_2_pinv_21
Xdinv8
+ dout_8 out vdd gnd
+ mp3_data_array_2_pinv_21
Xdload_8_0
+ out n_8_0 vdd gnd
+ mp3_data_array_2_pinv_21
Xdload_8_1
+ out n_8_1 vdd gnd
+ mp3_data_array_2_pinv_21
Xdload_8_2
+ out n_8_2 vdd gnd
+ mp3_data_array_2_pinv_21
Xdload_8_3
+ out n_8_3 vdd gnd
+ mp3_data_array_2_pinv_21
.ENDS mp3_data_array_2_delay_chain

* spice ptx M{0} {1} nmos_vtg m=67 w=0.305u l=0.05u pd=0.71u ps=0.71u as=0.04p ad=0.04p

* spice ptx M{0} {1} pmos_vtg m=67 w=0.915u l=0.05u pd=1.93u ps=1.93u as=0.11p ad=0.11p

.SUBCKT mp3_data_array_2_pinv_12
+ A Z vdd gnd
* INPUT : A 
* OUTPUT: Z 
* POWER : vdd 
* GROUND: gnd 
* size: 227
Mpinv_pmos Z A vdd vdd pmos_vtg m=67 w=0.915u l=0.05u pd=1.93u ps=1.93u as=0.11p ad=0.11p
Mpinv_nmos Z A gnd gnd nmos_vtg m=67 w=0.305u l=0.05u pd=0.71u ps=0.71u as=0.04p ad=0.04p
.ENDS mp3_data_array_2_pinv_12

* spice ptx M{0} {1} pmos_vtg m=8 w=0.845u l=0.05u pd=1.79u ps=1.79u as=0.11p ad=0.11p

* spice ptx M{0} {1} nmos_vtg m=8 w=0.28u l=0.05u pd=0.66u ps=0.66u as=0.04p ad=0.04p

.SUBCKT mp3_data_array_2_pinv_10
+ A Z vdd gnd
* INPUT : A 
* OUTPUT: Z 
* POWER : vdd 
* GROUND: gnd 
* size: 25
Mpinv_pmos Z A vdd vdd pmos_vtg m=8 w=0.845u l=0.05u pd=1.79u ps=1.79u as=0.11p ad=0.11p
Mpinv_nmos Z A gnd gnd nmos_vtg m=8 w=0.28u l=0.05u pd=0.66u ps=0.66u as=0.04p ad=0.04p
.ENDS mp3_data_array_2_pinv_10

* spice ptx M{0} {1} pmos_vtg m=23 w=0.8925000000000001u l=0.05u pd=1.89u ps=1.89u as=0.11p ad=0.11p

* spice ptx M{0} {1} nmos_vtg m=23 w=0.2975u l=0.05u pd=0.69u ps=0.69u as=0.04p ad=0.04p

.SUBCKT mp3_data_array_2_pinv_11
+ A Z vdd gnd
* INPUT : A 
* OUTPUT: Z 
* POWER : vdd 
* GROUND: gnd 
* size: 76
Mpinv_pmos Z A vdd vdd pmos_vtg m=23 w=0.8925000000000001u l=0.05u pd=1.89u ps=1.89u as=0.11p ad=0.11p
Mpinv_nmos Z A gnd gnd nmos_vtg m=23 w=0.2975u l=0.05u pd=0.69u ps=0.69u as=0.04p ad=0.04p
.ENDS mp3_data_array_2_pinv_11

.SUBCKT mp3_data_array_2_pinv_7
+ A Z vdd gnd
* INPUT : A 
* OUTPUT: Z 
* POWER : vdd 
* GROUND: gnd 
* size: 1
Mpinv_pmos Z A vdd vdd pmos_vtg m=1 w=0.27u l=0.05u pd=0.64u ps=0.64u as=0.03p ad=0.03p
Mpinv_nmos Z A gnd gnd nmos_vtg m=1 w=0.09u l=0.05u pd=0.28u ps=0.28u as=0.01p ad=0.01p
.ENDS mp3_data_array_2_pinv_7

* spice ptx M{0} {1} nmos_vtg m=3 w=0.24u l=0.05u pd=0.58u ps=0.58u as=0.03p ad=0.03p

* spice ptx M{0} {1} pmos_vtg m=3 w=0.72u l=0.05u pd=1.54u ps=1.54u as=0.09p ad=0.09p

.SUBCKT mp3_data_array_2_pinv_9
+ A Z vdd gnd
* INPUT : A 
* OUTPUT: Z 
* POWER : vdd 
* GROUND: gnd 
* size: 8
Mpinv_pmos Z A vdd vdd pmos_vtg m=3 w=0.72u l=0.05u pd=1.54u ps=1.54u as=0.09p ad=0.09p
Mpinv_nmos Z A gnd gnd nmos_vtg m=3 w=0.24u l=0.05u pd=0.58u ps=0.58u as=0.03p ad=0.03p
.ENDS mp3_data_array_2_pinv_9

.SUBCKT mp3_data_array_2_pdriver_1
+ A Z vdd gnd
* INPUT : A 
* OUTPUT: Z 
* POWER : vdd 
* GROUND: gnd 
* sizes: [1, 1, 1, 1, 1, 3, 8, 25, 76, 227]
Xbuf_inv1
+ A Zb1_int vdd gnd
+ mp3_data_array_2_pinv_7
Xbuf_inv2
+ Zb1_int Zb2_int vdd gnd
+ mp3_data_array_2_pinv_7
Xbuf_inv3
+ Zb2_int Zb3_int vdd gnd
+ mp3_data_array_2_pinv_7
Xbuf_inv4
+ Zb3_int Zb4_int vdd gnd
+ mp3_data_array_2_pinv_7
Xbuf_inv5
+ Zb4_int Zb5_int vdd gnd
+ mp3_data_array_2_pinv_7
Xbuf_inv6
+ Zb5_int Zb6_int vdd gnd
+ mp3_data_array_2_pinv_8
Xbuf_inv7
+ Zb6_int Zb7_int vdd gnd
+ mp3_data_array_2_pinv_9
Xbuf_inv8
+ Zb7_int Zb8_int vdd gnd
+ mp3_data_array_2_pinv_10
Xbuf_inv9
+ Zb8_int Zb9_int vdd gnd
+ mp3_data_array_2_pinv_11
Xbuf_inv10
+ Zb9_int Z vdd gnd
+ mp3_data_array_2_pinv_12
.ENDS mp3_data_array_2_pdriver_1

* spice ptx M{0} {1} nmos_vtg m=1 w=0.18u l=0.05u pd=0.46u ps=0.46u as=0.02p ad=0.02p

* spice ptx M{0} {1} nmos_vtg m=1 w=0.18u l=0.05u pd=0.46u ps=0.46u as=0.02p ad=0.02p

* spice ptx M{0} {1} pmos_vtg m=1 w=0.27u l=0.05u pd=0.64u ps=0.64u as=0.03p ad=0.03p

.SUBCKT mp3_data_array_2_pnand2_2
+ A B Z vdd gnd
* INPUT : A 
* INPUT : B 
* OUTPUT: Z 
* POWER : vdd 
* GROUND: gnd 
* size: 1
Mpnand2_pmos1 vdd A Z vdd pmos_vtg m=1 w=0.27u l=0.05u pd=0.64u ps=0.64u as=0.03p ad=0.03p
Mpnand2_pmos2 Z B vdd vdd pmos_vtg m=1 w=0.27u l=0.05u pd=0.64u ps=0.64u as=0.03p ad=0.03p
Mpnand2_nmos1 Z B net1 gnd nmos_vtg m=1 w=0.18u l=0.05u pd=0.46u ps=0.46u as=0.02p ad=0.02p
Mpnand2_nmos2 net1 A gnd gnd nmos_vtg m=1 w=0.18u l=0.05u pd=0.46u ps=0.46u as=0.02p ad=0.02p
.ENDS mp3_data_array_2_pnand2_2

* spice ptx M{0} {1} nmos_vtg m=1 w=0.18u l=0.05u pd=0.46u ps=0.46u as=0.02p ad=0.02p

.SUBCKT mp3_data_array_2_pnand3_0
+ A B C Z vdd gnd
* INPUT : A 
* INPUT : B 
* INPUT : C 
* OUTPUT: Z 
* POWER : vdd 
* GROUND: gnd 
* size: 1
Mpnand3_pmos1 vdd A Z vdd pmos_vtg m=1 w=0.27u l=0.05u pd=0.64u ps=0.64u as=0.03p ad=0.03p
Mpnand3_pmos2 Z B vdd vdd pmos_vtg m=1 w=0.27u l=0.05u pd=0.64u ps=0.64u as=0.03p ad=0.03p
Mpnand3_pmos3 Z C vdd vdd pmos_vtg m=1 w=0.27u l=0.05u pd=0.64u ps=0.64u as=0.03p ad=0.03p
Mpnand3_nmos1 Z C net1 gnd nmos_vtg m=1 w=0.18u l=0.05u pd=0.46u ps=0.46u as=0.02p ad=0.02p
Mpnand3_nmos2 net1 B net2 gnd nmos_vtg m=1 w=0.18u l=0.05u pd=0.46u ps=0.46u as=0.02p ad=0.02p
Mpnand3_nmos3 net2 A gnd gnd nmos_vtg m=1 w=0.18u l=0.05u pd=0.46u ps=0.46u as=0.02p ad=0.02p
.ENDS mp3_data_array_2_pnand3_0

* spice ptx M{0} {1} pmos_vtg m=38 w=0.91u l=0.05u pd=1.92u ps=1.92u as=0.11p ad=0.11p

* spice ptx M{0} {1} nmos_vtg m=38 w=0.3025u l=0.05u pd=0.70u ps=0.70u as=0.04p ad=0.04p

.SUBCKT mp3_data_array_2_pinv_15
+ A Z vdd gnd
* INPUT : A 
* OUTPUT: Z 
* POWER : vdd 
* GROUND: gnd 
* size: 128
Mpinv_pmos Z A vdd vdd pmos_vtg m=38 w=0.91u l=0.05u pd=1.92u ps=1.92u as=0.11p ad=0.11p
Mpinv_nmos Z A gnd gnd nmos_vtg m=38 w=0.3025u l=0.05u pd=0.70u ps=0.70u as=0.04p ad=0.04p
.ENDS mp3_data_array_2_pinv_15

.SUBCKT mp3_data_array_2_pdriver_4
+ A Z vdd gnd
* INPUT : A 
* OUTPUT: Z 
* POWER : vdd 
* GROUND: gnd 
* sizes: [128]
Xbuf_inv1
+ A Z vdd gnd
+ mp3_data_array_2_pinv_15
.ENDS mp3_data_array_2_pdriver_4

.SUBCKT mp3_data_array_2_pand3_0
+ A B C Z vdd gnd
* INPUT : A 
* INPUT : B 
* INPUT : C 
* OUTPUT: Z 
* POWER : vdd 
* GROUND: gnd 
* size: 128
Xpand3_nand
+ A B C zb_int vdd gnd
+ mp3_data_array_2_pnand3_0
Xpand3_inv
+ zb_int Z vdd gnd
+ mp3_data_array_2_pdriver_4
.ENDS mp3_data_array_2_pand3_0

.SUBCKT mp3_data_array_2_pnand2_1
+ A B Z vdd gnd
* INPUT : A 
* INPUT : B 
* OUTPUT: Z 
* POWER : vdd 
* GROUND: gnd 
* size: 1
Mpnand2_pmos1 vdd A Z vdd pmos_vtg m=1 w=0.27u l=0.05u pd=0.64u ps=0.64u as=0.03p ad=0.03p
Mpnand2_pmos2 Z B vdd vdd pmos_vtg m=1 w=0.27u l=0.05u pd=0.64u ps=0.64u as=0.03p ad=0.03p
Mpnand2_nmos1 Z B net1 gnd nmos_vtg m=1 w=0.18u l=0.05u pd=0.46u ps=0.46u as=0.02p ad=0.02p
Mpnand2_nmos2 net1 A gnd gnd nmos_vtg m=1 w=0.18u l=0.05u pd=0.46u ps=0.46u as=0.02p ad=0.02p
.ENDS mp3_data_array_2_pnand2_1

* spice ptx M{0} {1} pmos_vtg m=4 w=0.81u l=0.05u pd=1.72u ps=1.72u as=0.10p ad=0.10p

* spice ptx M{0} {1} nmos_vtg m=4 w=0.27u l=0.05u pd=0.64u ps=0.64u as=0.03p ad=0.03p

.SUBCKT mp3_data_array_2_pinv_4
+ A Z vdd gnd
* INPUT : A 
* OUTPUT: Z 
* POWER : vdd 
* GROUND: gnd 
* size: 12
Mpinv_pmos Z A vdd vdd pmos_vtg m=4 w=0.81u l=0.05u pd=1.72u ps=1.72u as=0.10p ad=0.10p
Mpinv_nmos Z A gnd gnd nmos_vtg m=4 w=0.27u l=0.05u pd=0.64u ps=0.64u as=0.03p ad=0.03p
.ENDS mp3_data_array_2_pinv_4

.SUBCKT mp3_data_array_2_pdriver_0
+ A Z vdd gnd
* INPUT : A 
* OUTPUT: Z 
* POWER : vdd 
* GROUND: gnd 
* sizes: [12]
Xbuf_inv1
+ A Z vdd gnd
+ mp3_data_array_2_pinv_4
.ENDS mp3_data_array_2_pdriver_0

.SUBCKT mp3_data_array_2_pand2_0
+ A B Z vdd gnd
* INPUT : A 
* INPUT : B 
* OUTPUT: Z 
* POWER : vdd 
* GROUND: gnd 
* size: 12
Xpand2_nand
+ A B zb_int vdd gnd
+ mp3_data_array_2_pnand2_1
Xpand2_inv
+ zb_int Z vdd gnd
+ mp3_data_array_2_pdriver_0
.ENDS mp3_data_array_2_pand2_0

* spice ptx M{0} {1} pmos_vtg m=40 w=0.9175u l=0.05u pd=1.94u ps=1.94u as=0.11p ad=0.11p

* spice ptx M{0} {1} nmos_vtg m=40 w=0.305u l=0.05u pd=0.71u ps=0.71u as=0.04p ad=0.04p

.SUBCKT mp3_data_array_2_pinv_14
+ A Z vdd gnd
* INPUT : A 
* OUTPUT: Z 
* POWER : vdd 
* GROUND: gnd 
* size: 136
Mpinv_pmos Z A vdd vdd pmos_vtg m=40 w=0.9175u l=0.05u pd=1.94u ps=1.94u as=0.11p ad=0.11p
Mpinv_nmos Z A gnd gnd nmos_vtg m=40 w=0.305u l=0.05u pd=0.71u ps=0.71u as=0.04p ad=0.04p
.ENDS mp3_data_array_2_pinv_14

.SUBCKT mp3_data_array_2_pdriver_3
+ A Z vdd gnd
* INPUT : A 
* OUTPUT: Z 
* POWER : vdd 
* GROUND: gnd 
* sizes: [136]
Xbuf_inv1
+ A Z vdd gnd
+ mp3_data_array_2_pinv_14
.ENDS mp3_data_array_2_pdriver_3

.SUBCKT mp3_data_array_2_pand3
+ A B C Z vdd gnd
* INPUT : A 
* INPUT : B 
* INPUT : C 
* OUTPUT: Z 
* POWER : vdd 
* GROUND: gnd 
* size: 136
Xpand3_nand
+ A B C zb_int vdd gnd
+ mp3_data_array_2_pnand3_0
Xpand3_inv
+ zb_int Z vdd gnd
+ mp3_data_array_2_pdriver_3
.ENDS mp3_data_array_2_pand3

* spice ptx M{0} {1} nmos_vtg m=2 w=0.18u l=0.05u pd=0.46u ps=0.46u as=0.02p ad=0.02p

* spice ptx M{0} {1} pmos_vtg m=2 w=0.54u l=0.05u pd=1.18u ps=1.18u as=0.07p ad=0.07p

.SUBCKT mp3_data_array_2_pinv_3
+ A Z vdd gnd
* INPUT : A 
* OUTPUT: Z 
* POWER : vdd 
* GROUND: gnd 
* size: 4
Mpinv_pmos Z A vdd vdd pmos_vtg m=2 w=0.54u l=0.05u pd=1.18u ps=1.18u as=0.07p ad=0.07p
Mpinv_nmos Z A gnd gnd nmos_vtg m=2 w=0.18u l=0.05u pd=0.46u ps=0.46u as=0.02p ad=0.02p
.ENDS mp3_data_array_2_pinv_3

* spice ptx M{0} {1} nmos_vtg m=1 w=0.18u l=0.05u pd=0.46u ps=0.46u as=0.02p ad=0.02p

* spice ptx M{0} {1} pmos_vtg m=1 w=0.54u l=0.05u pd=1.18u ps=1.18u as=0.07p ad=0.07p

.SUBCKT mp3_data_array_2_pinv_2
+ A Z vdd gnd
* INPUT : A 
* OUTPUT: Z 
* POWER : vdd 
* GROUND: gnd 
* size: 2
Mpinv_pmos Z A vdd vdd pmos_vtg m=1 w=0.54u l=0.05u pd=1.18u ps=1.18u as=0.07p ad=0.07p
Mpinv_nmos Z A gnd gnd nmos_vtg m=1 w=0.18u l=0.05u pd=0.46u ps=0.46u as=0.02p ad=0.02p
.ENDS mp3_data_array_2_pinv_2

.SUBCKT mp3_data_array_2_dff_buf_0
+ D Q Qb clk vdd gnd
* INPUT : D 
* OUTPUT: Q 
* OUTPUT: Qb 
* INPUT : clk 
* POWER : vdd 
* GROUND: gnd 
* inv1: 2 inv2: 4
Xdff_buf_dff
+ D qint clk vdd gnd
+ dff
Xdff_buf_inv1
+ qint Qb vdd gnd
+ mp3_data_array_2_pinv_2
Xdff_buf_inv2
+ Qb Q vdd gnd
+ mp3_data_array_2_pinv_3
.ENDS mp3_data_array_2_dff_buf_0

.SUBCKT mp3_data_array_2_dff_buf_array
+ din_0 din_1 dout_0 dout_bar_0 dout_1 dout_bar_1 clk vdd gnd
* INPUT : din_0 
* INPUT : din_1 
* OUTPUT: dout_0 
* OUTPUT: dout_bar_0 
* OUTPUT: dout_1 
* OUTPUT: dout_bar_1 
* INPUT : clk 
* POWER : vdd 
* GROUND: gnd 