**************************************************
* OpenRAM generated memory.
* Words: 32
* Data bits: 22
* Banks: 1
* Column mux: 2:1
* Trimmed: True
* LVS: False
**************************************************
* File: DFFPOSX1.pex.netlist
* Created: Wed Jan  2 18:36:24 2008
* Program "Calibre xRC"
* Version "v2007.2_34.24"
*
.subckt dff D Q clk vdd gnd
*
MM21 Q a_66_6# gnd gnd NMOS_VTG L=5e-08 W=5e-07
MM19 a_76_6# a_2_6# a_66_6# gnd NMOS_VTG L=5e-08 W=2.5e-07
MM20 gnd Q a_76_6# gnd NMOS_VTG L=5e-08 W=2.5e-07
MM18 a_66_6# clk a_61_6# gnd NMOS_VTG L=5e-08 W=2.5e-07
MM17 a_61_6# a_34_4# gnd gnd NMOS_VTG L=5e-08 W=2.5e-07
MM10 gnd clk a_2_6# gnd NMOS_VTG L=5e-08 W=5e-07
MM16 a_34_4# a_22_6# gnd gnd NMOS_VTG L=5e-08 W=2.5e-07
MM15 gnd a_34_4# a_31_6# gnd NMOS_VTG L=5e-08 W=2.5e-07
MM14 a_31_6# clk a_22_6# gnd NMOS_VTG L=5e-08 W=2.5e-07
MM13 a_22_6# a_2_6# a_17_6# gnd NMOS_VTG L=5e-08 W=2.5e-07
MM12 a_17_6# D gnd gnd NMOS_VTG L=5e-08 W=2.5e-07
MM11 Q a_66_6# vdd vdd PMOS_VTG L=5e-08 W=1e-06
MM9 vdd Q a_76_84# vdd PMOS_VTG L=5e-08 W=2.5e-07
MM8 a_76_84# clk a_66_6# vdd PMOS_VTG L=5e-08 W=2.5e-07
MM7 a_66_6# a_2_6# a_61_74# vdd PMOS_VTG L=5e-08 W=5e-07
MM6 a_61_74# a_34_4# vdd vdd PMOS_VTG L=5e-08 W=5e-07
MM0 vdd clk a_2_6# vdd PMOS_VTG L=5e-08 W=1e-06
MM5 a_34_4# a_22_6# vdd vdd PMOS_VTG L=5e-08 W=5e-07
MM4 vdd a_34_4# a_31_74# vdd PMOS_VTG L=5e-08 W=5e-07
MM3 a_31_74# a_2_6# a_22_6# vdd PMOS_VTG L=5e-08 W=5e-07
MM2 a_22_6# clk a_17_74# vdd PMOS_VTG L=5e-08 W=5e-07
MM1 a_17_74# D vdd vdd PMOS_VTG L=5e-08 W=5e-07
* c_9 a_66_6# 0 0.271997f
* c_20 clk 0 0.350944f
* c_27 Q 0 0.202617f
* c_32 a_76_84# 0 0.0210573f
* c_38 a_76_6# 0 0.0204911f
* c_45 a_34_4# 0 0.172306f
* c_55 a_2_6# 0 0.283119f
* c_59 a_22_6# 0 0.157312f
* c_64 D 0 0.0816386f
* c_73 gnd 0 0.254131f
* c_81 vdd 0 0.23624f
*
*.include "dff.pex.netlist.dff.pxi"
*
.ends
*
*

.SUBCKT mp3_tag_array_2_col_addr_dff
+ din_0 dout_0 clk vdd gnd
* INPUT : din_0 
* OUTPUT: dout_0 
* INPUT : clk 
* POWER : vdd 
* GROUND: gnd 
* rows: 1 cols: 1
Xdff_r0_c0
+ din_0 dout_0 clk vdd gnd
+ dff
.ENDS mp3_tag_array_2_col_addr_dff

* spice ptx M{0} {1} pmos_vtg m=1 w=0.27u l=0.05u pd=0.64u ps=0.64u as=0.03p ad=0.03p

* spice ptx M{0} {1} nmos_vtg m=1 w=0.09u l=0.05u pd=0.28u ps=0.28u as=0.01p ad=0.01p

.SUBCKT mp3_tag_array_2_pinv_16
+ A Z vdd gnd
* INPUT : A 
* OUTPUT: Z 
* POWER : vdd 
* GROUND: gnd 
* size: 1
Mpinv_pmos Z A vdd vdd pmos_vtg m=1 w=0.27u l=0.05u pd=0.64u ps=0.64u as=0.03p ad=0.03p
Mpinv_nmos Z A gnd gnd nmos_vtg m=1 w=0.09u l=0.05u pd=0.28u ps=0.28u as=0.01p ad=0.01p
.ENDS mp3_tag_array_2_pinv_16

.SUBCKT mp3_tag_array_2_delay_chain
+ in out vdd gnd
* INPUT : in 
* OUTPUT: out 
* POWER : vdd 
* GROUND: gnd 
* fanouts: [4, 4, 4, 4, 4, 4, 4, 4, 4]
Xdinv0
+ in dout_1 vdd gnd
+ mp3_tag_array_2_pinv_16
Xdload_0_0
+ dout_1 n_0_0 vdd gnd
+ mp3_tag_array_2_pinv_16
Xdload_0_1
+ dout_1 n_0_1 vdd gnd
+ mp3_tag_array_2_pinv_16
Xdload_0_2
+ dout_1 n_0_2 vdd gnd
+ mp3_tag_array_2_pinv_16
Xdload_0_3
+ dout_1 n_0_3 vdd gnd
+ mp3_tag_array_2_pinv_16
Xdinv1
+ dout_1 dout_2 vdd gnd
+ mp3_tag_array_2_pinv_16
Xdload_1_0
+ dout_2 n_1_0 vdd gnd
+ mp3_tag_array_2_pinv_16
Xdload_1_1
+ dout_2 n_1_1 vdd gnd
+ mp3_tag_array_2_pinv_16
Xdload_1_2
+ dout_2 n_1_2 vdd gnd
+ mp3_tag_array_2_pinv_16
Xdload_1_3
+ dout_2 n_1_3 vdd gnd
+ mp3_tag_array_2_pinv_16
Xdinv2
+ dout_2 dout_3 vdd gnd
+ mp3_tag_array_2_pinv_16
Xdload_2_0
+ dout_3 n_2_0 vdd gnd
+ mp3_tag_array_2_pinv_16
Xdload_2_1
+ dout_3 n_2_1 vdd gnd
+ mp3_tag_array_2_pinv_16
Xdload_2_2
+ dout_3 n_2_2 vdd gnd
+ mp3_tag_array_2_pinv_16
Xdload_2_3
+ dout_3 n_2_3 vdd gnd
+ mp3_tag_array_2_pinv_16
Xdinv3
+ dout_3 dout_4 vdd gnd
+ mp3_tag_array_2_pinv_16
Xdload_3_0
+ dout_4 n_3_0 vdd gnd
+ mp3_tag_array_2_pinv_16
Xdload_3_1
+ dout_4 n_3_1 vdd gnd
+ mp3_tag_array_2_pinv_16
Xdload_3_2
+ dout_4 n_3_2 vdd gnd
+ mp3_tag_array_2_pinv_16
Xdload_3_3
+ dout_4 n_3_3 vdd gnd
+ mp3_tag_array_2_pinv_16
Xdinv4
+ dout_4 dout_5 vdd gnd
+ mp3_tag_array_2_pinv_16
Xdload_4_0
+ dout_5 n_4_0 vdd gnd
+ mp3_tag_array_2_pinv_16
Xdload_4_1
+ dout_5 n_4_1 vdd gnd
+ mp3_tag_array_2_pinv_16
Xdload_4_2
+ dout_5 n_4_2 vdd gnd
+ mp3_tag_array_2_pinv_16
Xdload_4_3
+ dout_5 n_4_3 vdd gnd
+ mp3_tag_array_2_pinv_16
Xdinv5
+ dout_5 dout_6 vdd gnd
+ mp3_tag_array_2_pinv_16
Xdload_5_0
+ dout_6 n_5_0 vdd gnd
+ mp3_tag_array_2_pinv_16
Xdload_5_1
+ dout_6 n_5_1 vdd gnd
+ mp3_tag_array_2_pinv_16
Xdload_5_2
+ dout_6 n_5_2 vdd gnd
+ mp3_tag_array_2_pinv_16
Xdload_5_3
+ dout_6 n_5_3 vdd gnd
+ mp3_tag_array_2_pinv_16
Xdinv6
+ dout_6 dout_7 vdd gnd
+ mp3_tag_array_2_pinv_16
Xdload_6_0
+ dout_7 n_6_0 vdd gnd
+ mp3_tag_array_2_pinv_16
Xdload_6_1
+ dout_7 n_6_1 vdd gnd
+ mp3_tag_array_2_pinv_16
Xdload_6_2
+ dout_7 n_6_2 vdd gnd
+ mp3_tag_array_2_pinv_16
Xdload_6_3
+ dout_7 n_6_3 vdd gnd
+ mp3_tag_array_2_pinv_16
Xdinv7
+ dout_7 dout_8 vdd gnd
+ mp3_tag_array_2_pinv_16
Xdload_7_0
+ dout_8 n_7_0 vdd gnd
+ mp3_tag_array_2_pinv_16
Xdload_7_1
+ dout_8 n_7_1 vdd gnd
+ mp3_tag_array_2_pinv_16
Xdload_7_2
+ dout_8 n_7_2 vdd gnd
+ mp3_tag_array_2_pinv_16
Xdload_7_3
+ dout_8 n_7_3 vdd gnd
+ mp3_tag_array_2_pinv_16
Xdinv8
+ dout_8 out vdd gnd
+ mp3_tag_array_2_pinv_16
Xdload_8_0
+ out n_8_0 vdd gnd
+ mp3_tag_array_2_pinv_16
Xdload_8_1
+ out n_8_1 vdd gnd
+ mp3_tag_array_2_pinv_16
Xdload_8_2
+ out n_8_2 vdd gnd
+ mp3_tag_array_2_pinv_16
Xdload_8_3
+ out n_8_3 vdd gnd
+ mp3_tag_array_2_pinv_16
.ENDS mp3_tag_array_2_delay_chain

* spice ptx M{0} {1} pmos_vtg m=7 w=0.8475u l=0.05u pd=1.80u ps=1.80u as=0.11p ad=0.11p

* spice ptx M{0} {1} nmos_vtg m=7 w=0.28250000000000003u l=0.05u pd=0.67u ps=0.67u as=0.04p ad=0.04p

.SUBCKT mp3_tag_array_2_pinv_14
+ A Z vdd gnd
* INPUT : A 
* OUTPUT: Z 
* POWER : vdd 
* GROUND: gnd 
* size: 22
Mpinv_pmos Z A vdd vdd pmos_vtg m=7 w=0.8475u l=0.05u pd=1.80u ps=1.80u as=0.11p ad=0.11p
Mpinv_nmos Z A gnd gnd nmos_vtg m=7 w=0.28250000000000003u l=0.05u pd=0.67u ps=0.67u as=0.04p ad=0.04p
.ENDS mp3_tag_array_2_pinv_14

.SUBCKT mp3_tag_array_2_pdriver_3
+ A Z vdd gnd
* INPUT : A 
* OUTPUT: Z 
* POWER : vdd 
* GROUND: gnd 
* sizes: [22]
Xbuf_inv1
+ A Z vdd gnd
+ mp3_tag_array_2_pinv_14
.ENDS mp3_tag_array_2_pdriver_3

* spice ptx M{0} {1} nmos_vtg m=1 w=0.18u l=0.05u pd=0.46u ps=0.46u as=0.02p ad=0.02p

* spice ptx M{0} {1} nmos_vtg m=1 w=0.18u l=0.05u pd=0.46u ps=0.46u as=0.02p ad=0.02p

* spice ptx M{0} {1} pmos_vtg m=1 w=0.27u l=0.05u pd=0.64u ps=0.64u as=0.03p ad=0.03p

* spice ptx M{0} {1} nmos_vtg m=1 w=0.18u l=0.05u pd=0.46u ps=0.46u as=0.02p ad=0.02p

.SUBCKT mp3_tag_array_2_pnand3_0
+ A B C Z vdd gnd
* INPUT : A 
* INPUT : B 
* INPUT : C 
* OUTPUT: Z 
* POWER : vdd 
* GROUND: gnd 
* size: 1
Mpnand3_pmos1 vdd A Z vdd pmos_vtg m=1 w=0.27u l=0.05u pd=0.64u ps=0.64u as=0.03p ad=0.03p
Mpnand3_pmos2 Z B vdd vdd pmos_vtg m=1 w=0.27u l=0.05u pd=0.64u ps=0.64u as=0.03p ad=0.03p
Mpnand3_pmos3 Z C vdd vdd pmos_vtg m=1 w=0.27u l=0.05u pd=0.64u ps=0.64u as=0.03p ad=0.03p
Mpnand3_nmos1 Z C net1 gnd nmos_vtg m=1 w=0.18u l=0.05u pd=0.46u ps=0.46u as=0.02p ad=0.02p
Mpnand3_nmos2 net1 B net2 gnd nmos_vtg m=1 w=0.18u l=0.05u pd=0.46u ps=0.46u as=0.02p ad=0.02p
Mpnand3_nmos3 net2 A gnd gnd nmos_vtg m=1 w=0.18u l=0.05u pd=0.46u ps=0.46u as=0.02p ad=0.02p
.ENDS mp3_tag_array_2_pnand3_0

.SUBCKT mp3_tag_array_2_pand3_0
+ A B C Z vdd gnd
* INPUT : A 
* INPUT : B 
* INPUT : C 
* OUTPUT: Z 
* POWER : vdd 
* GROUND: gnd 
* size: 22
Xpand3_nand
+ A B C zb_int vdd gnd
+ mp3_tag_array_2_pnand3_0
Xpand3_inv
+ zb_int Z vdd gnd
+ mp3_tag_array_2_pdriver_3
.ENDS mp3_tag_array_2_pand3_0

* spice ptx M{0} {1} nmos_vtg m=9 w=0.3u l=0.05u pd=0.70u ps=0.70u as=0.04p ad=0.04p

* spice ptx M{0} {1} pmos_vtg m=9 w=0.9u l=0.05u pd=1.90u ps=1.90u as=0.11p ad=0.11p

.SUBCKT mp3_tag_array_2_pinv_13
+ A Z vdd gnd
* INPUT : A 
* OUTPUT: Z 
* POWER : vdd 
* GROUND: gnd 
* size: 30
Mpinv_pmos Z A vdd vdd pmos_vtg m=9 w=0.9u l=0.05u pd=1.90u ps=1.90u as=0.11p ad=0.11p
Mpinv_nmos Z A gnd gnd nmos_vtg m=9 w=0.3u l=0.05u pd=0.70u ps=0.70u as=0.04p ad=0.04p
.ENDS mp3_tag_array_2_pinv_13

.SUBCKT mp3_tag_array_2_pdriver_2
+ A Z vdd gnd
* INPUT : A 
* OUTPUT: Z 
* POWER : vdd 
* GROUND: gnd 
* sizes: [30]
Xbuf_inv1
+ A Z vdd gnd
+ mp3_tag_array_2_pinv_13
.ENDS mp3_tag_array_2_pdriver_2

.SUBCKT mp3_tag_array_2_pand3
+ A B C Z vdd gnd
* INPUT : A 
* INPUT : B 
* INPUT : C 
* OUTPUT: Z 
* POWER : vdd 
* GROUND: gnd 
* size: 30
Xpand3_nand
+ A B C zb_int vdd gnd
+ mp3_tag_array_2_pnand3_0
Xpand3_inv
+ zb_int Z vdd gnd
+ mp3_tag_array_2_pdriver_2
.ENDS mp3_tag_array_2_pand3

* spice ptx M{0} {1} nmos_vtg m=1 w=0.18u l=0.05u pd=0.46u ps=0.46u as=0.02p ad=0.02p

* spice ptx M{0} {1} pmos_vtg m=1 w=0.54u l=0.05u pd=1.18u ps=1.18u as=0.07p ad=0.07p

.SUBCKT mp3_tag_array_2_pinv_8
+ A Z vdd gnd
* INPUT : A 
* OUTPUT: Z 
* POWER : vdd 
* GROUND: gnd 
* size: 2
Mpinv_pmos Z A vdd vdd pmos_vtg m=1 w=0.54u l=0.05u pd=1.18u ps=1.18u as=0.07p ad=0.07p
Mpinv_nmos Z A gnd gnd nmos_vtg m=1 w=0.18u l=0.05u pd=0.46u ps=0.46u as=0.02p ad=0.02p
.ENDS mp3_tag_array_2_pinv_8

* spice ptx M{0} {1} nmos_vtg m=2 w=0.225u l=0.05u pd=0.55u ps=0.55u as=0.03p ad=0.03p

* spice ptx M{0} {1} pmos_vtg m=2 w=0.675u l=0.05u pd=1.45u ps=1.45u as=0.08p ad=0.08p

.SUBCKT mp3_tag_array_2_pinv_12
+ A Z vdd gnd
* INPUT : A 
* OUTPUT: Z 
* POWER : vdd 
* GROUND: gnd 
* size: 5
Mpinv_pmos Z A vdd vdd pmos_vtg m=2 w=0.675u l=0.05u pd=1.45u ps=1.45u as=0.08p ad=0.08p
Mpinv_nmos Z A gnd gnd nmos_vtg m=2 w=0.225u l=0.05u pd=0.55u ps=0.55u as=0.03p ad=0.03p
.ENDS mp3_tag_array_2_pinv_12

* spice ptx M{0} {1} pmos_vtg m=5 w=0.81u l=0.05u pd=1.72u ps=1.72u as=0.10p ad=0.10p

* spice ptx M{0} {1} nmos_vtg m=5 w=0.27u l=0.05u pd=0.64u ps=0.64u as=0.03p ad=0.03p

.SUBCKT mp3_tag_array_2_pinv_15
+ A Z vdd gnd
* INPUT : A 
* OUTPUT: Z 
* POWER : vdd 
* GROUND: gnd 
* size: 15
Mpinv_pmos Z A vdd vdd pmos_vtg m=5 w=0.81u l=0.05u pd=1.72u ps=1.72u as=0.10p ad=0.10p
Mpinv_nmos Z A gnd gnd nmos_vtg m=5 w=0.27u l=0.05u pd=0.64u ps=0.64u as=0.03p ad=0.03p
.ENDS mp3_tag_array_2_pinv_15

.SUBCKT mp3_tag_array_2_pinv_7
+ A Z vdd gnd
* INPUT : A 
* OUTPUT: Z 
* POWER : vdd 
* GROUND: gnd 
* size: 1
Mpinv_pmos Z A vdd vdd pmos_vtg m=1 w=0.27u l=0.05u pd=0.64u ps=0.64u as=0.03p ad=0.03p
Mpinv_nmos Z A gnd gnd nmos_vtg m=1 w=0.09u l=0.05u pd=0.28u ps=0.28u as=0.01p ad=0.01p
.ENDS mp3_tag_array_2_pinv_7

.SUBCKT mp3_tag_array_2_pdriver_4
+ A Z vdd gnd
* INPUT : A 
* OUTPUT: Z 
* POWER : vdd 
* GROUND: gnd 
* sizes: [1, 2, 5, 15]
Xbuf_inv1
+ A Zb1_int vdd gnd
+ mp3_tag_array_2_pinv_7
Xbuf_inv2
+ Zb1_int Zb2_int vdd gnd
+ mp3_tag_array_2_pinv_8
Xbuf_inv3
+ Zb2_int Zb3_int vdd gnd
+ mp3_tag_array_2_pinv_12
Xbuf_inv4
+ Zb3_int Z vdd gnd
+ mp3_tag_array_2_pinv_15
.ENDS mp3_tag_array_2_pdriver_4

.SUBCKT mp3_tag_array_2_pinv_2
+ A Z vdd gnd
* INPUT : A 
* OUTPUT: Z 
* POWER : vdd 
* GROUND: gnd 
* size: 2
Mpinv_pmos Z A vdd vdd pmos_vtg m=1 w=0.54u l=0.05u pd=1.18u ps=1.18u as=0.07p ad=0.07p
Mpinv_nmos Z A gnd gnd nmos_vtg m=1 w=0.18u l=0.05u pd=0.46u ps=0.46u as=0.02p ad=0.02p
.ENDS mp3_tag_array_2_pinv_2

* spice ptx M{0} {1} pmos_vtg m=2 w=0.54u l=0.05u pd=1.18u ps=1.18u as=0.07p ad=0.07p

* spice ptx M{0} {1} nmos_vtg m=2 w=0.18u l=0.05u pd=0.46u ps=0.46u as=0.02p ad=0.02p

.SUBCKT mp3_tag_array_2_pinv_3
+ A Z vdd gnd
* INPUT : A 
* OUTPUT: Z 
* POWER : vdd 
* GROUND: gnd 
* size: 4
Mpinv_pmos Z A vdd vdd pmos_vtg m=2 w=0.54u l=0.05u pd=1.18u ps=1.18u as=0.07p ad=0.07p
Mpinv_nmos Z A gnd gnd nmos_vtg m=2 w=0.18u l=0.05u pd=0.46u ps=0.46u as=0.02p ad=0.02p
.ENDS mp3_tag_array_2_pinv_3

.SUBCKT mp3_tag_array_2_dff_buf_0
+ D Q Qb clk vdd gnd
* INPUT : D 
* OUTPUT: Q 
* OUTPUT: Qb 
* INPUT : clk 
* POWER : vdd 
* GROUND: gnd 
* inv1: 2 inv2: 4
Xdff_buf_dff
+ D qint clk vdd gnd
+ dff
Xdff_buf_inv1
+ qint Qb vdd gnd
+ mp3_tag_array_2_pinv_2
Xdff_buf_inv2
+ Qb Q vdd gnd
+ mp3_tag_array_2_pinv_3
.ENDS mp3_tag_array_2_dff_buf_0

.SUBCKT mp3_tag_array_2_dff_buf_array
+ din_0 din_1 dout_0 dout_bar_0 dout_1 dout_bar_1 clk vdd gnd
* INPUT : din_0 
* INPUT : din_1 
* OUTPUT: dout_0 
* OUTPUT: dout_bar_0 
* OUTPUT: dout_1 
* OUTPUT: dout_bar_1 
* INPUT : clk 
* POWER : vdd 
* GROUND: gnd 
* rows: 2 cols: 1
* inv1: 2 inv2: 4
Xdff_r0_c0
+ din_0 dout_0 dout_bar_0 clk vdd gnd
+ mp3_tag_array_2_dff_buf_0
Xdff_r1_c0
+ din_1 dout_1 dout_bar_1 clk vdd gnd
+ mp3_tag_array_2_dff_buf_0
.ENDS mp3_tag_array_2_dff_buf_array

.SUBCKT mp3_tag_array_2_pinv_1
+ A Z vdd gnd
* INPUT : A 
* OUTPUT: Z 
* POWER : vdd 
* GROUND: gnd 
* size: 1
Mpinv_pmos Z A vdd vdd pmos_vtg m=1 w=0.27u l=0.05u pd=0.64u ps=0.64u as=0.03p ad=0.03p
Mpinv_nmos Z A gnd gnd nmos_vtg m=1 w=0.09u l=0.05u pd=0.28u ps=0.28u as=0.01p ad=0.01p
.ENDS mp3_tag_array_2_pinv_1

.SUBCKT mp3_tag_array_2_pdriver_1
+ A Z vdd gnd
* INPUT : A 
* OUTPUT: Z 
* POWER : vdd 
* GROUND: gnd 
* sizes: [1, 5]
Xbuf_inv1
+ A Zb1_int vdd gnd
+ mp3_tag_array_2_pinv_7
Xbuf_inv2
+ Zb1_int Z vdd gnd
+ mp3_tag_array_2_pinv_12
.ENDS mp3_tag_array_2_pdriver_1

* spice ptx M{0} {1} nmos_vtg m=4 w=0.27u l=0.05u pd=0.64u ps=0.64u as=0.03p ad=0.03p

* spice ptx M{0} {1} pmos_vtg m=4 w=0.81u l=0.05u pd=1.72u ps=1.72u as=0.10p ad=0.10p

.SUBCKT mp3_tag_array_2_pinv_4
+ A Z vdd gnd
* INPUT : A 
* OUTPUT: Z 
* POWER : vdd 
* GROUND: gnd 
* size: 12
Mpinv_pmos Z A vdd vdd pmos_vtg m=4 w=0.81u l=0.05u pd=1.72u ps=1.72u as=0.10p ad=0.10p
Mpinv_nmos Z A gnd gnd nmos_vtg m=4 w=0.27u l=0.05u pd=0.64u ps=0.64u as=0.03p ad=0.03p
.ENDS mp3_tag_array_2_pinv_4

.SUBCKT mp3_tag_array_2_pdriver
+ A Z vdd gnd
* INPUT : A 
* OUTPUT: Z 
* POWER : vdd 
* GROUND: gnd 
* sizes: [12]
Xbuf_inv1
+ A Z vdd gnd
+ mp3_tag_array_2_pinv_4
.ENDS mp3_tag_array_2_pdriver

.SUBCKT mp3_tag_array_2_pnand2_0
+ A B Z vdd gnd
* INPUT : A 
* INPUT : B 
* OUTPUT: Z 
* POWER : vdd 
* GROUND: gnd 
* size: 1
Mpnand2_pmos1 vdd A Z vdd pmos_vtg m=1 w=0.27u l=0.05u pd=0.64u ps=0.64u as=0.03p ad=0.03p
Mpnand2_pmos2 Z B vdd vdd pmos_vtg m=1 w=0.27u l=0.05u pd=0.64u ps=0.64u as=0.03p ad=0.03p
Mpnand2_nmos1 Z B net1 gnd nmos_vtg m=1 w=0.18u l=0.05u pd=0.46u ps=0.46u as=0.02p ad=0.02p
Mpnand2_nmos2 net1 A gnd gnd nmos_vtg m=1 w=0.18u l=0.05u pd=0.46u ps=0.46u as=0.02p ad=0.02p
.ENDS mp3_tag_array_2_pnand2_0

.SUBCKT mp3_tag_array_2_pand2
+ A B Z vdd gnd
* INPUT : A 
* INPUT : B 
* OUTPUT: Z 
* POWER : vdd 
* GROUND: gnd 
* size: 12
Xpand2_nand
+ A B zb_int vdd gnd
+ mp3_tag_array_2_pnand2_0
Xpand2_inv
+ zb_int Z vdd gnd
+ mp3_tag_array_2_pdriver
.ENDS mp3_tag_array_2_pand2

* spice ptx M{0} {1} nmos_vtg m=5 w=0.305u l=0.05u pd=0.71u ps=0.71u as=0.04p ad=0.04p

* spice ptx M{0} {1} pmos_vtg m=5 w=0.9175u l=0.05u pd=1.94u ps=1.94u as=0.11p ad=0.11p

.SUBCKT mp3_tag_array_2_pinv_10
+ A Z vdd gnd
* INPUT : A 
* OUTPUT: Z 
* POWER : vdd 
* GROUND: gnd 
* size: 17
Mpinv_pmos Z A vdd vdd pmos_vtg m=5 w=0.9175u l=0.05u pd=1.94u ps=1.94u as=0.11p ad=0.11p
Mpinv_nmos Z A gnd gnd nmos_vtg m=5 w=0.305u l=0.05u pd=0.71u ps=0.71u as=0.04p ad=0.04p
.ENDS mp3_tag_array_2_pinv_10

* spice ptx M{0} {1} pmos_vtg m=2 w=0.81u l=0.05u pd=1.72u ps=1.72u as=0.10p ad=0.10p

* spice ptx M{0} {1} nmos_vtg m=2 w=0.27u l=0.05u pd=0.64u ps=0.64u as=0.03p ad=0.03p

.SUBCKT mp3_tag_array_2_pinv_9
+ A Z vdd gnd
* INPUT : A 
* OUTPUT: Z 
* POWER : vdd 
* GROUND: gnd 
* size: 6
Mpinv_pmos Z A vdd vdd pmos_vtg m=2 w=0.81u l=0.05u pd=1.72u ps=1.72u as=0.10p ad=0.10p
Mpinv_nmos Z A gnd gnd nmos_vtg m=2 w=0.27u l=0.05u pd=0.64u ps=0.64u as=0.03p ad=0.03p
.ENDS mp3_tag_array_2_pinv_9

* spice ptx M{0} {1} pmos_vtg m=16 w=0.8775000000000001u l=0.05u pd=1.86u ps=1.86u as=0.11p ad=0.11p

* spice ptx M{0} {1} nmos_vtg m=16 w=0.2925u l=0.05u pd=0.68u ps=0.68u as=0.04p ad=0.04p

.SUBCKT mp3_tag_array_2_pinv_11
+ A Z vdd gnd
* INPUT : A 
* OUTPUT: Z 
* POWER : vdd 
* GROUND: gnd 
* size: 52
Mpinv_pmos Z A vdd vdd pmos_vtg m=16 w=0.8775000000000001u l=0.05u pd=1.86u ps=1.86u as=0.11p ad=0.11p
Mpinv_nmos Z A gnd gnd nmos_vtg m=16 w=0.2925u l=0.05u pd=0.68u ps=0.68u as=0.04p ad=0.04p
.ENDS mp3_tag_array_2_pinv_11

.SUBCKT mp3_tag_array_2_pdriver_0
+ A Z vdd gnd
* INPUT : A 
* OUTPUT: Z 
* POWER : vdd 
* GROUND: gnd 
* sizes: [1, 1, 2, 6, 17, 52]
Xbuf_inv1
+ A Zb1_int vdd gnd
+ mp3_tag_array_2_pinv_7
Xbuf_inv2
+ Zb1_int Zb2_int vdd gnd
+ mp3_tag_array_2_pinv_7
Xbuf_inv3
+ Zb2_int Zb3_int vdd gnd
+ mp3_tag_array_2_pinv_8
Xbuf_inv4
+ Zb3_int Zb4_int vdd gnd
+ mp3_tag_array_2_pinv_9
Xbuf_inv5
+ Zb4_int Zb5_int vdd gnd
+ mp3_tag_array_2_pinv_10
Xbuf_inv6
+ Zb5_int Z vdd gnd
+ mp3_tag_array_2_pinv_11
.ENDS mp3_tag_array_2_pdriver_0

.SUBCKT mp3_tag_array_2_pnand2_1
+ A B Z vdd gnd
* INPUT : A 
* INPUT : B 
* OUTPUT: Z 
* POWER : vdd 
* GROUND: gnd 
* size: 1
Mpnand2_pmos1 vdd A Z vdd pmos_vtg m=1 w=0.27u l=0.05u pd=0.64u ps=0.64u as=0.03p ad=0.03p
Mpnand2_pmos2 Z B vdd vdd pmos_vtg m=1 w=0.27u l=0.05u pd=0.64u ps=0.64u as=0.03p ad=0.03p
Mpnand2_nmos1 Z B net1 gnd nmos_vtg m=1 w=0.18u l=0.05u pd=0.46u ps=0.46u as=0.02p ad=0.02p
Mpnand2_nmos2 net1 A gnd gnd nmos_vtg m=1 w=0.18u l=0.05u pd=0.46u ps=0.46u as=0.02p ad=0.02p
.ENDS mp3_tag_array_2_pnand2_1

.SUBCKT mp3_tag_array_2_control_logic_rw
+ csb web clk rbl_bl s_en w_en p_en_bar wl_en clk_buf vdd gnd
* INPUT : csb 
* INPUT : web 
* INPUT : clk 
* INPUT : rbl_bl 
* OUTPUT: s_en 
* OUTPUT: w_en 
* OUTPUT: p_en_bar 
* OUTPUT: wl_en 
* OUTPUT: clk_buf 
* POWER : vdd 
* GROUND: gnd 
* num_rows: 16
* words_per_row: 2
* word_size 22
Xctrl_dffs
+ csb web cs_bar cs we_bar we clk_buf vdd gnd
+ mp3_tag_array_2_dff_buf_array
Xclkbuf
+ clk clk_buf vdd gnd
+ mp3_tag_array_2_pdriver_0
Xinv_clk_bar
+ clk_buf clk_bar vdd gnd
+ mp3_tag_array_2_pinv_1
Xand2_gated_clk_bar
+ clk_bar cs gated_clk_bar vdd gnd
+ mp3_tag_array_2_pand2
Xand2_gated_clk_buf
+ clk_buf cs gated_clk_buf vdd gnd
+ mp3_tag_array_2_pand2
Xbuf_wl_en
+ gated_clk_bar wl_en vdd gnd
+ mp3_tag_array_2_pdriver_1
Xrbl_bl_delay_inv
+ rbl_bl_delay rbl_bl_delay_bar vdd gnd
+ mp3_tag_array_2_pinv_1
Xw_en_and
+ we rbl_bl_delay_bar gated_clk_bar w_en vdd gnd
+ mp3_tag_array_2_pand3
Xbuf_s_en_and
+ rbl_bl_delay gated_clk_bar we_bar s_en vdd gnd
+ mp3_tag_array_2_pand3_0
Xdelay_chain
+ rbl_bl rbl_bl_delay vdd gnd
+ mp3_tag_array_2_delay_chain
Xnand_p_en_bar
+ gated_clk_buf rbl_bl_delay p_en_bar_unbuf vdd gnd
+ mp3_tag_array_2_pnand2_1
Xbuf_p_en_bar
+ p_en_bar_unbuf p_en_bar vdd gnd
+ mp3_tag_array_2_pdriver_4
.ENDS mp3_tag_array_2_control_logic_rw

.SUBCKT mp3_tag_array_2_data_dff
+ din_0 din_1 din_2 din_3 din_4 din_5 din_6 din_7 din_8 din_9 din_10
+ din_11 din_12 din_13 din_14 din_15 din_16 din_17 din_18 din_19 din_20
+ din_21 dout_0 dout_1 dout_2 dout_3 dout_4 dout_5 dout_6 dout_7 dout_8
+ dout_9 dout_10 dout_11 dout_12 dout_13 dout_14 dout_15 dout_16 dout_17
+ dout_18 dout_19 dout_20 dout_21 clk vdd gnd
* INPUT : din_0 
* INPUT : din_1 
* INPUT : din_2 
* INPUT : din_3 
* INPUT : din_4 
* INPUT : din_5 
* INPUT : din_6 
* INPUT : din_7 
* INPUT : din_8 
* INPUT : din_9 
* INPUT : din_10 
* INPUT : din_11 
* INPUT : din_12 
* INPUT : din_13 
* INPUT : din_14 
* INPUT : din_15 
* INPUT : din_16 
* INPUT : din_17 
* INPUT : din_18 
* INPUT : din_19 
* INPUT : din_20 
* INPUT : din_21 
* OUTPUT: dout_0 
* OUTPUT: dout_1 
* OUTPUT: dout_2 
* OUTPUT: dout_3 
* OUTPUT: dout_4 
* OUTPUT: dout_5 
* OUTPUT: dout_6 
* OUTPUT: dout_7 
* OUTPUT: dout_8 
* OUTPUT: dout_9 
* OUTPUT: dout_10 
* OUTPUT: dout_11 
* OUTPUT: dout_12 
* OUTPUT: dout_13 
* OUTPUT: dout_14 
* OUTPUT: dout_15 
* OUTPUT: dout_16 
* OUTPUT: dout_17 
* OUTPUT: dout_18 
* OUTPUT: dout_19 
* OUTPUT: dout_20 
* OUTPUT: dout_21 
* INPUT : clk 
* POWER : vdd 
* GROUND: gnd 
* rows: 1 cols: 22
Xdff_r0_c0
+ din_0 dout_0 clk vdd gnd
+ dff
Xdff_r0_c1
+ din_1 dout_1 clk vdd gnd
+ dff
Xdff_r0_c2
+ din_2 dout_2 clk vdd gnd
+ dff
Xdff_r0_c3
+ din_3 dout_3 clk vdd gnd
+ dff
Xdff_r0_c4
+ din_4 dout_4 clk vdd gnd
+ dff
Xdff_r0_c5
+ din_5 dout_5 clk vdd gnd
+ dff
Xdff_r0_c6
+ din_6 dout_6 clk vdd gnd
+ dff
Xdff_r0_c7
+ din_7 dout_7 clk vdd gnd
+ dff
Xdff_r0_c8
+ din_8 dout_8 clk vdd gnd
+ dff
Xdff_r0_c9
+ din_9 dout_9 clk vdd gnd
+ dff
Xdff_r0_c10
+ din_10 dout_10 clk vdd gnd
+ dff
Xdff_r0_c11
+ din_11 dout_11 clk vdd gnd
+ dff
Xdff_r0_c12
+ din_12 dout_12 clk vdd gnd
+ dff
Xdff_r0_c13
+ din_13 dout_13 clk vdd gnd
+ dff
Xdff_r0_c14
+ din_14 dout_14 clk vdd gnd
+ dff
Xdff_r0_c15
+ din_15 dout_15 clk vdd gnd
+ dff
Xdff_r0_c16
+ din_16 dout_16 clk vdd gnd
+ dff
Xdff_r0_c17
+ din_17 dout_17 clk vdd gnd
+ dff
Xdff_r0_c18
+ din_18 dout_18 clk vdd gnd
+ dff
Xdff_r0_c19
+ din_19 dout_19 clk vdd gnd
+ dff
Xdff_r0_c20
+ din_20 dout_20 clk vdd gnd
+ dff
Xdff_r0_c21
+ din_21 dout_21 clk vdd gnd
+ dff
.ENDS mp3_tag_array_2_data_dff

.SUBCKT mp3_tag_array_2_row_addr_dff
+ din_0 din_1 din_2 din_3 dout_0 dout_1 dout_2 dout_3 clk vdd gnd
* INPUT : din_0 
* INPUT : din_1 
* INPUT : din_2 
* INPUT : din_3 
* OUTPUT: dout_0 
* OUTPUT: dout_1 
* OUTPUT: dout_2 
* OUTPUT: dout_3 
* INPUT : clk 
* POWER : vdd 
* GROUND: gnd 
* rows: 4 cols: 1
Xdff_r0_c0
+ din_0 dout_0 clk vdd gnd
+ dff
Xdff_r1_c0
+ din_1 dout_1 clk vdd gnd
+ dff
Xdff_r2_c0
+ din_2 dout_2 clk vdd gnd
+ dff
Xdff_r3_c0
+ din_3 dout_3 clk vdd gnd
+ dff
.ENDS mp3_tag_array_2_row_addr_dff

.SUBCKT dummy_cell_1rw bl br wl vdd gnd
* Inverter 1
MM0 Q_bar Q gnd gnd NMOS_VTG W=205.00n L=50n
MM4 Q_bar Q vdd vdd PMOS_VTG W=90n L=50n

* Inverer 2
MM1 Q Q_bar gnd gnd NMOS_VTG W=205.00n L=50n
MM5 Q Q_bar vdd vdd PMOS_VTG W=90n L=50n

* Access transistors
MM3 bl_noconn wl Q gnd NMOS_VTG W=135.00n L=50n
MM2 br_noconn wl Q_bar gnd NMOS_VTG W=135.00n L=50n
.ENDS dummy_cell_1rw


.SUBCKT mp3_tag_array_2_dummy_array_3
+ bl_0_0 br_0_0 wl_0_0 wl_0_1 wl_0_2 wl_0_3 wl_0_4 wl_0_5 wl_0_6 wl_0_7
+ wl_0_8 wl_0_9 wl_0_10 wl_0_11 wl_0_12 wl_0_13 wl_0_14 wl_0_15 wl_0_16
+ wl_0_17 wl_0_18 vdd gnd
* INOUT : bl_0_0 
* INOUT : br_0_0 
* INPUT : wl_0_0 
* INPUT : wl_0_1 
* INPUT : wl_0_2 
* INPUT : wl_0_3 
* INPUT : wl_0_4 
* INPUT : wl_0_5 
* INPUT : wl_0_6 
* INPUT : wl_0_7 
* INPUT : wl_0_8 
* INPUT : wl_0_9 
* INPUT : wl_0_10 
* INPUT : wl_0_11 
* INPUT : wl_0_12 
* INPUT : wl_0_13 
* INPUT : wl_0_14 
* INPUT : wl_0_15 
* INPUT : wl_0_16 
* INPUT : wl_0_17 
* INPUT : wl_0_18 
* POWER : vdd 
* GROUND: gnd 
Xbit_r0_c0
+ bl_0_0 br_0_0 wl_0_0 vdd gnd
+ dummy_cell_1rw
Xbit_r1_c0
+ bl_0_0 br_0_0 wl_0_1 vdd gnd
+ dummy_cell_1rw
Xbit_r2_c0
+ bl_0_0 br_0_0 wl_0_2 vdd gnd
+ dummy_cell_1rw
Xbit_r3_c0
+ bl_0_0 br_0_0 wl_0_3 vdd gnd
+ dummy_cell_1rw
Xbit_r4_c0
+ bl_0_0 br_0_0 wl_0_4 vdd gnd
+ dummy_cell_1rw
Xbit_r5_c0
+ bl_0_0 br_0_0 wl_0_5 vdd gnd
+ dummy_cell_1rw
Xbit_r6_c0
+ bl_0_0 br_0_0 wl_0_6 vdd gnd
+ dummy_cell_1rw
Xbit_r7_c0
+ bl_0_0 br_0_0 wl_0_7 vdd gnd
+ dummy_cell_1rw
Xbit_r8_c0
+ bl_0_0 br_0_0 wl_0_8 vdd gnd
+ dummy_cell_1rw
Xbit_r9_c0
+ bl_0_0 br_0_0 wl_0_9 vdd gnd
+ dummy_cell_1rw
Xbit_r10_c0
+ bl_0_0 br_0_0 wl_0_10 vdd gnd
+ dummy_cell_1rw
Xbit_r11_c0
+ bl_0_0 br_0_0 wl_0_11 vdd gnd
+ dummy_cell_1rw
Xbit_r12_c0
+ bl_0_0 br_0_0 wl_0_12 vdd gnd
+ dummy_cell_1rw
Xbit_r13_c0
+ bl_0_0 br_0_0 wl_0_13 vdd gnd
+ dummy_cell_1rw
Xbit_r14_c0
+ bl_0_0 br_0_0 wl_0_14 vdd gnd
+ dummy_cell_1rw
Xbit_r15_c0
+ bl_0_0 br_0_0 wl_0_15 vdd gnd
+ dummy_cell_1rw
Xbit_r16_c0
+ bl_0_0 br_0_0 wl_0_16 vdd gnd
+ dummy_cell_1rw
Xbit_r17_c0
+ bl_0_0 br_0_0 wl_0_17 vdd gnd
+ dummy_cell_1rw
Xbit_r18_c0
+ bl_0_0 br_0_0 wl_0_18 vdd gnd
+ dummy_cell_1rw
.ENDS mp3_tag_array_2_dummy_array_3

.SUBCKT mp3_tag_array_2_dummy_array_2
+ bl_0_0 br_0_0 wl_0_0 wl_0_1 wl_0_2 wl_0_3 wl_0_4 wl_0_5 wl_0_6 wl_0_7
+ wl_0_8 wl_0_9 wl_0_10 wl_0_11 wl_0_12 wl_0_13 wl_0_14 wl_0_15 wl_0_16
+ wl_0_17 wl_0_18 vdd gnd
* INOUT : bl_0_0 
* INOUT : br_0_0 
* INPUT : wl_0_0 
* INPUT : wl_0_1 
* INPUT : wl_0_2 
* INPUT : wl_0_3 
* INPUT : wl_0_4 
* INPUT : wl_0_5 
* INPUT : wl_0_6 
* INPUT : wl_0_7 
* INPUT : wl_0_8 
* INPUT : wl_0_9 
* INPUT : wl_0_10 
* INPUT : wl_0_11 
* INPUT : wl_0_12 
* INPUT : wl_0_13 
* INPUT : wl_0_14 
* INPUT : wl_0_15 
* INPUT : wl_0_16 
* INPUT : wl_0_17 
* INPUT : wl_0_18 
* POWER : vdd 
* GROUND: gnd 
Xbit_r0_c0
+ bl_0_0 br_0_0 wl_0_0 vdd gnd
+ dummy_cell_1rw
Xbit_r1_c0
+ bl_0_0 br_0_0 wl_0_1 vdd gnd
+ dummy_cell_1rw
Xbit_r2_c0
+ bl_0_0 br_0_0 wl_0_2 vdd gnd
+ dummy_cell_1rw
Xbit_r3_c0
+ bl_0_0 br_0_0 wl_0_3 vdd gnd
+ dummy_cell_1rw
Xbit_r4_c0
+ bl_0_0 br_0_0 wl_0_4 vdd gnd
+ dummy_cell_1rw
Xbit_r5_c0
+ bl_0_0 br_0_0 wl_0_5 vdd gnd
+ dummy_cell_1rw
Xbit_r6_c0
+ bl_0_0 br_0_0 wl_0_6 vdd gnd
+ dummy_cell_1rw
Xbit_r7_c0
+ bl_0_0 br_0_0 wl_0_7 vdd gnd
+ dummy_cell_1rw
Xbit_r8_c0
+ bl_0_0 br_0_0 wl_0_8 vdd gnd
+ dummy_cell_1rw
Xbit_r9_c0
+ bl_0_0 br_0_0 wl_0_9 vdd gnd
+ dummy_cell_1rw
Xbit_r10_c0
+ bl_0_0 br_0_0 wl_0_10 vdd gnd
+ dummy_cell_1rw
Xbit_r11_c0
+ bl_0_0 br_0_0 wl_0_11 vdd gnd
+ dummy_cell_1rw
Xbit_r12_c0
+ bl_0_0 br_0_0 wl_0_12 vdd gnd
+ dummy_cell_1rw
Xbit_r13_c0
+ bl_0_0 br_0_0 wl_0_13 vdd gnd
+ dummy_cell_1rw
Xbit_r14_c0
+ bl_0_0 br_0_0 wl_0_14 vdd gnd
+ dummy_cell_1rw
Xbit_r15_c0
+ bl_0_0 br_0_0 wl_0_15 vdd gnd
+ dummy_cell_1rw
Xbit_r16_c0
+ bl_0_0 br_0_0 wl_0_16 vdd gnd
+ dummy_cell_1rw
Xbit_r17_c0
+ bl_0_0 br_0_0 wl_0_17 vdd gnd
+ dummy_cell_1rw
Xbit_r18_c0
+ bl_0_0 br_0_0 wl_0_18 vdd gnd
+ dummy_cell_1rw
.ENDS mp3_tag_array_2_dummy_array_2

.SUBCKT mp3_tag_array_2_dummy_array_0
+ bl_0_0 br_0_0 bl_0_1 br_0_1 bl_0_2 br_0_2 bl_0_3 br_0_3 bl_0_4 br_0_4
+ bl_0_5 br_0_5 bl_0_6 br_0_6 bl_0_7 br_0_7 bl_0_8 br_0_8 bl_0_9 br_0_9
+ bl_0_10 br_0_10 bl_0_11 br_0_11 bl_0_12 br_0_12 bl_0_13 br_0_13
+ bl_0_14 br_0_14 bl_0_15 br_0_15 bl_0_16 br_0_16 bl_0_17 br_0_17
+ bl_0_18 br_0_18 bl_0_19 br_0_19 bl_0_20 br_0_20 bl_0_21 br_0_21
+ bl_0_22 br_0_22 bl_0_23 br_0_23 bl_0_24 br_0_24 bl_0_25 br_0_25
+ bl_0_26 br_0_26 bl_0_27 br_0_27 bl_0_28 br_0_28 bl_0_29 br_0_29
+ bl_0_30 br_0_30 bl_0_31 br_0_31 bl_0_32 br_0_32 bl_0_33 br_0_33
+ bl_0_34 br_0_34 bl_0_35 br_0_35 bl_0_36 br_0_36 bl_0_37 br_0_37
+ bl_0_38 br_0_38 bl_0_39 br_0_39 bl_0_40 br_0_40 bl_0_41 br_0_41
+ bl_0_42 br_0_42 bl_0_43 br_0_43 bl_0_44 br_0_44 wl_0_0 vdd gnd
* INOUT : bl_0_0 
* INOUT : br_0_0 
* INOUT : bl_0_1 
* INOUT : br_0_1 
* INOUT : bl_0_2 
* INOUT : br_0_2 
* INOUT : bl_0_3 
* INOUT : br_0_3 
* INOUT : bl_0_4 
* INOUT : br_0_4 
* INOUT : bl_0_5 
* INOUT : br_0_5 
* INOUT : bl_0_6 
* INOUT : br_0_6 
* INOUT : bl_0_7 
* INOUT : br_0_7 
* INOUT : bl_0_8 
* INOUT : br_0_8 
* INOUT : bl_0_9 
* INOUT : br_0_9 
* INOUT : bl_0_10 
* INOUT : br_0_10 
* INOUT : bl_0_11 
* INOUT : br_0_11 
* INOUT : bl_0_12 
* INOUT : br_0_12 
* INOUT : bl_0_13 
* INOUT : br_0_13 
* INOUT : bl_0_14 
* INOUT : br_0_14 
* INOUT : bl_0_15 
* INOUT : br_0_15 
* INOUT : bl_0_16 
* INOUT : br_0_16 
* INOUT : bl_0_17 
* INOUT : br_0_17 
* INOUT : bl_0_18 
* INOUT : br_0_18 
* INOUT : bl_0_19 
* INOUT : br_0_19 
* INOUT : bl_0_20 
* INOUT : br_0_20 
* INOUT : bl_0_21 
* INOUT : br_0_21 
* INOUT : bl_0_22 
* INOUT : br_0_22 
* INOUT : bl_0_23 
* INOUT : br_0_23 
* INOUT : bl_0_24 
* INOUT : br_0_24 
* INOUT : bl_0_25 
* INOUT : br_0_25 
* INOUT : bl_0_26 
* INOUT : br_0_26 
* INOUT : bl_0_27 
* INOUT : br_0_27 
* INOUT : bl_0_28 
* INOUT : br_0_28 
* INOUT : bl_0_29 
* INOUT : br_0_29 
* INOUT : bl_0_30 
* INOUT : br_0_30 
* INOUT : bl_0_31 
* INOUT : br_0_31 
* INOUT : bl_0_32 
* INOUT : br_0_32 
* INOUT : bl_0_33 
* INOUT : br_0_33 
* INOUT : bl_0_34 
* INOUT : br_0_34 
* INOUT : bl_0_35 
* INOUT : br_0_35 
* INOUT : bl_0_36 
* INOUT : br_0_36 
* INOUT : bl_0_37 
* INOUT : br_0_37 
* INOUT : bl_0_38 
* INOUT : br_0_38 
* INOUT : bl_0_39 
* INOUT : br_0_39 
* INOUT : bl_0_40 
* INOUT : br_0_40 
* INOUT : bl_0_41 
* INOUT : br_0_41 
* INOUT : bl_0_42 
* INOUT : br_0_42 
* INOUT : bl_0_43 
* INOUT : br_0_43 
* INOUT : bl_0_44 
* INOUT : br_0_44 
* INPUT : wl_0_0 
* POWER : vdd 
* GROUND: gnd 
Xbit_r0_c0
+ bl_0_0 br_0_0 wl_0_0 vdd gnd
+ dummy_cell_1rw
Xbit_r0_c1
+ bl_0_1 br_0_1 wl_0_0 vdd gnd
+ dummy_cell_1rw
Xbit_r0_c2
+ bl_0_2 br_0_2 wl_0_0 vdd gnd
+ dummy_cell_1rw
Xbit_r0_c3
+ bl_0_3 br_0_3 wl_0_0 vdd gnd
+ dummy_cell_1rw
Xbit_r0_c4
+ bl_0_4 br_0_4 wl_0_0 vdd gnd
+ dummy_cell_1rw
Xbit_r0_c5
+ bl_0_5 br_0_5 wl_0_0 vdd gnd
+ dummy_cell_1rw
Xbit_r0_c6
+ bl_0_6 br_0_6 wl_0_0 vdd gnd
+ dummy_cell_1rw
Xbit_r0_c7
+ bl_0_7 br_0_7 wl_0_0 vdd gnd
+ dummy_cell_1rw
Xbit_r0_c8
+ bl_0_8 br_0_8 wl_0_0 vdd gnd
+ dummy_cell_1rw
Xbit_r0_c9
+ bl_0_9 br_0_9 wl_0_0 vdd gnd
+ dummy_cell_1rw
Xbit_r0_c10
+ bl_0_10 br_0_10 wl_0_0 vdd gnd
+ dummy_cell_1rw
Xbit_r0_c11
+ bl_0_11 br_0_11 wl_0_0 vdd gnd
+ dummy_cell_1rw
Xbit_r0_c12
+ bl_0_12 br_0_12 wl_0_0 vdd gnd
+ dummy_cell_1rw
Xbit_r0_c13
+ bl_0_13 br_0_13 wl_0_0 vdd gnd
+ dummy_cell_1rw
Xbit_r0_c14
+ bl_0_14 br_0_14 wl_0_0 vdd gnd
+ dummy_cell_1rw
Xbit_r0_c15
+ bl_0_15 br_0_15 wl_0_0 vdd gnd
+ dummy_cell_1rw
Xbit_r0_c16
+ bl_0_16 br_0_16 wl_0_0 vdd gnd
+ dummy_cell_1rw
Xbit_r0_c17
+ bl_0_17 br_0_17 wl_0_0 vdd gnd
+ dummy_cell_1rw
Xbit_r0_c18
+ bl_0_18 br_0_18 wl_0_0 vdd gnd
+ dummy_cell_1rw
Xbit_r0_c19
+ bl_0_19 br_0_19 wl_0_0 vdd gnd
+ dummy_cell_1rw
Xbit_r0_c20
+ bl_0_20 br_0_20 wl_0_0 vdd gnd
+ dummy_cell_1rw
Xbit_r0_c21
+ bl_0_21 br_0_21 wl_0_0 vdd gnd
+ dummy_cell_1rw
Xbit_r0_c22
+ bl_0_22 br_0_22 wl_0_0 vdd gnd
+ dummy_cell_1rw
Xbit_r0_c23
+ bl_0_23 br_0_23 wl_0_0 vdd gnd
+ dummy_cell_1rw
Xbit_r0_c24
+ bl_0_24 br_0_24 wl_0_0 vdd gnd
+ dummy_cell_1rw
Xbit_r0_c25
+ bl_0_25 br_0_25 wl_0_0 vdd gnd
+ dummy_cell_1rw
Xbit_r0_c26
+ bl_0_26 br_0_26 wl_0_0 vdd gnd
+ dummy_cell_1rw
Xbit_r0_c27
+ bl_0_27 br_0_27 wl_0_0 vdd gnd
+ dummy_cell_1rw
Xbit_r0_c28
+ bl_0_28 br_0_28 wl_0_0 vdd gnd
+ dummy_cell_1rw
Xbit_r0_c29
+ bl_0_29 br_0_29 wl_0_0 vdd gnd
+ dummy_cell_1rw
Xbit_r0_c30
+ bl_0_30 br_0_30 wl_0_0 vdd gnd
+ dummy_cell_1rw
Xbit_r0_c31
+ bl_0_31 br_0_31 wl_0_0 vdd gnd
+ dummy_cell_1rw
Xbit_r0_c32
+ bl_0_32 br_0_32 wl_0_0 vdd gnd
+ dummy_cell_1rw
Xbit_r0_c33
+ bl_0_33 br_0_33 wl_0_0 vdd gnd
+ dummy_cell_1rw
Xbit_r0_c34
+ bl_0_34 br_0_34 wl_0_0 vdd gnd
+ dummy_cell_1rw
Xbit_r0_c35
+ bl_0_35 br_0_35 wl_0_0 vdd gnd
+ dummy_cell_1rw
Xbit_r0_c36
+ bl_0_36 br_0_36 wl_0_0 vdd gnd
+ dummy_cell_1rw
Xbit_r0_c37
+ bl_0_37 br_0_37 wl_0_0 vdd gnd
+ dummy_cell_1rw
Xbit_r0_c38
+ bl_0_38 br_0_38 wl_0_0 vdd gnd
+ dummy_cell_1rw
Xbit_r0_c39